 Abaqus/Standard 2023.HF4                  DATE 28-Aug-2024 TIME 16:05:40
 SUMMARY OF JOB INFORMATION:
 STEP  INC ATT SEVERE EQUIL TOTAL  TOTAL      STEP       INC OF       DOF    IF
               DISCON ITERS ITERS  TIME/    TIME/LPF    TIME/LPF    MONITOR RIKS
               ITERS               FREQ
   1     1   1     0     1     1  1.30e+03   1.30e+03   1296.     
   1     2   1     0     1     1  2.59e+03   2.59e+03   1296.     
   1     3   1     0     1     1  3.89e+03   3.89e+03   1296.     
   1     4   1     0     1     1  5.18e+03   5.18e+03   1296.     
   1     5   1     0     1     1  6.48e+03   6.48e+03   1296.     
   1     6   1     0     1     1  7.78e+03   7.78e+03   1296.     
   1     7   1     0     1     1  9.07e+03   9.07e+03   1296.     
   1     8   1     0     1     1  1.04e+04   1.04e+04   1296.     
   1     9   1     0     1     1  1.17e+04   1.17e+04   1296.     
   1    10   1     0     1     1  1.30e+04   1.30e+04   1296.     
   1    11   1     0     1     1  1.43e+04   1.43e+04   1296.     
   1    12   1     0     1     1  1.56e+04   1.56e+04   1296.     
   1    13   1     0     1     1  1.68e+04   1.68e+04   1296.     
   1    14   1     0     1     1  1.81e+04   1.81e+04   1296.     
   1    15   1     0     1     1  1.94e+04   1.94e+04   1296.     
   1    16   1     0     1     1  2.07e+04   2.07e+04   1296.     
   1    17   1     0     1     1  2.20e+04   2.20e+04   1296.     
   1    18   1     0     1     1  2.33e+04   2.33e+04   1296.     
   1    19   1     0     1     1  2.46e+04   2.46e+04   1296.     
   1    20   1     0     1     1  2.59e+04   2.59e+04   1296.     
   1    21   1     0     1     1  2.72e+04   2.72e+04   1296.     
   1    22   1     0     1     1  2.85e+04   2.85e+04   1296.     
   1    23   1     0     1     1  2.98e+04   2.98e+04   1296.     
   1    24   1     0     1     1  3.11e+04   3.11e+04   1296.     
   1    25   1     0     1     1  3.24e+04   3.24e+04   1296.     
   1    26   1     0     1     1  3.37e+04   3.37e+04   1296.     
   1    27   1     0     1     1  3.50e+04   3.50e+04   1296.     
   1    28   1     0     1     1  3.63e+04   3.63e+04   1296.     
   1    29   1     0     1     1  3.76e+04   3.76e+04   1296.     
   1    30   1     0     1     1  3.89e+04   3.89e+04   1296.     
   1    31   1     0     1     1  4.02e+04   4.02e+04   1296.     
   1    32   1     0     1     1  4.15e+04   4.15e+04   1296.     
   1    33   1     0     1     1  4.28e+04   4.28e+04   1296.     
   1    34   1     0     1     1  4.41e+04   4.41e+04   1296.     
   1    35   1     0     1     1  4.54e+04   4.54e+04   1296.     
   1    36   1     0     1     1  4.67e+04   4.67e+04   1296.     
   1    37   1     0     1     1  4.80e+04   4.80e+04   1296.     
   1    38   1     0     1     1  4.92e+04   4.92e+04   1296.     
   1    39   1     0     1     1  5.05e+04   5.05e+04   1296.     
   1    40   1     0     1     1  5.18e+04   5.18e+04   1296.     
   1    41   1     0     1     1  5.31e+04   5.31e+04   1296.     
   1    42   1     0     1     1  5.44e+04   5.44e+04   1296.     
   1    43   1     0     1     1  5.57e+04   5.57e+04   1296.     
   1    44   1     0     1     1  5.70e+04   5.70e+04   1296.     
   1    45   1     0     1     1  5.83e+04   5.83e+04   1296.     
   1    46   1     0     1     1  5.96e+04   5.96e+04   1296.     
   1    47   1     0     1     1  6.09e+04   6.09e+04   1296.     
   1    48   1     0     1     1  6.22e+04   6.22e+04   1296.     
   1    49   1     0     1     1  6.35e+04   6.35e+04   1296.     
   1    50   1     0     1     1  6.48e+04   6.48e+04   1296.     
   1    51   1     0     1     1  6.61e+04   6.61e+04   1296.     
   1    52   1     0     1     1  6.74e+04   6.74e+04   1296.     
   1    53   1     0     1     1  6.87e+04   6.87e+04   1296.     
   1    54   1     0     1     1  7.00e+04   7.00e+04   1296.     
   1    55   1     0     1     1  7.13e+04   7.13e+04   1296.     
   1    56   1     0     1     1  7.26e+04   7.26e+04   1296.     
   1    57   1     0     1     1  7.39e+04   7.39e+04   1296.     
   1    58   1     0     1     1  7.52e+04   7.52e+04   1296.     
   1    59   1     0     1     1  7.65e+04   7.65e+04   1296.     
   1    60   1     0     1     1  7.78e+04   7.78e+04   1296.     
   1    61   1     0     1     1  7.91e+04   7.91e+04   1296.     
   1    62   1     0     1     1  8.04e+04   8.04e+04   1296.     
   1    63   1     0     1     1  8.16e+04   8.16e+04   1296.     
   1    64   1     0     1     1  8.29e+04   8.29e+04   1296.     
   1    65   1     0     1     1  8.42e+04   8.42e+04   1296.     
   1    66   1     0     1     1  8.55e+04   8.55e+04   1296.     
   1    67   1     0     1     1  8.68e+04   8.68e+04   1296.     
   1    68   1     0     1     1  8.81e+04   8.81e+04   1296.     
   1    69   1     0     1     1  8.94e+04   8.94e+04   1296.     
   1    70   1     0     1     1  9.07e+04   9.07e+04   1296.     
   1    71   1     0     1     1  9.20e+04   9.20e+04   1296.     
   1    72   1     0     1     1  9.33e+04   9.33e+04   1296.     
   1    73   1     0     1     1  9.46e+04   9.46e+04   1296.     
   1    74   1     0     1     1  9.59e+04   9.59e+04   1296.     
   1    75   1     0     1     1  9.72e+04   9.72e+04   1296.     
   1    76   1     0     1     1  9.85e+04   9.85e+04   1296.     
   1    77   1     0     1     1  9.98e+04   9.98e+04   1296.     
   1    78   1     0     1     1  1.01e+05   1.01e+05   1296.     
   1    79   1     0     1     1  1.02e+05   1.02e+05   1296.     
   1    80   1     0     1     1  1.04e+05   1.04e+05   1296.     
   1    81   1     0     1     1  1.05e+05   1.05e+05   1296.     
   1    82   1     0     1     1  1.06e+05   1.06e+05   1296.     
   1    83   1     0     1     1  1.08e+05   1.08e+05   1296.     
   1    84   1     0     1     1  1.09e+05   1.09e+05   1296.     
   1    85   1     0     1     1  1.10e+05   1.10e+05   1296.     
   1    86   1     0     1     1  1.11e+05   1.11e+05   1296.     
   1    87   1     0     1     1  1.13e+05   1.13e+05   1296.     
   1    88   1     0     1     1  1.14e+05   1.14e+05   1296.     
   1    89   1     0     1     1  1.15e+05   1.15e+05   1296.     
   1    90   1     0     1     1  1.17e+05   1.17e+05   1296.     
   1    91   1     0     1     1  1.18e+05   1.18e+05   1296.     
   1    92   1     0     1     1  1.19e+05   1.19e+05   1296.     
   1    93   1     0     1     1  1.21e+05   1.21e+05   1296.     
   1    94   1     0     1     1  1.22e+05   1.22e+05   1296.     
   1    95   1     0     1     1  1.23e+05   1.23e+05   1296.     
   1    96   1     0     1     1  1.24e+05   1.24e+05   1296.     
   1    97   1     0     1     1  1.26e+05   1.26e+05   1296.     
   1    98   1     0     1     1  1.27e+05   1.27e+05   1296.     
   1    99   1     0     1     1  1.28e+05   1.28e+05   1296.     
   1   100   1     0     1     1  1.30e+05   1.30e+05   1296.     
   1   101   1     0     1     1  1.31e+05   1.31e+05   1296.     
   1   102   1     0     1     1  1.32e+05   1.32e+05   1296.     
   1   103   1     0     1     1  1.33e+05   1.33e+05   1296.     
   1   104   1     0     1     1  1.35e+05   1.35e+05   1296.     
   1   105   1     0     1     1  1.36e+05   1.36e+05   1296.     
   1   106   1     0     1     1  1.37e+05   1.37e+05   1296.     
   1   107   1     0     1     1  1.39e+05   1.39e+05   1296.     
   1   108   1     0     1     1  1.40e+05   1.40e+05   1296.     
   1   109   1     0     1     1  1.41e+05   1.41e+05   1296.     
   1   110   1     0     1     1  1.43e+05   1.43e+05   1296.     
   1   111   1     0     1     1  1.44e+05   1.44e+05   1296.     
   1   112   1     0     1     1  1.45e+05   1.45e+05   1296.     
   1   113   1     0     1     1  1.46e+05   1.46e+05   1296.     
   1   114   1     0     1     1  1.48e+05   1.48e+05   1296.     
   1   115   1     0     1     1  1.49e+05   1.49e+05   1296.     
   1   116   1     0     1     1  1.50e+05   1.50e+05   1296.     
   1   117   1     0     1     1  1.52e+05   1.52e+05   1296.     
   1   118   1     0     1     1  1.53e+05   1.53e+05   1296.     
   1   119   1     0     1     1  1.54e+05   1.54e+05   1296.     
   1   120   1     0     1     1  1.56e+05   1.56e+05   1296.     
   1   121   1     0     1     1  1.57e+05   1.57e+05   1296.     
   1   122   1     0     1     1  1.58e+05   1.58e+05   1296.     
   1   123   1     0     1     1  1.59e+05   1.59e+05   1296.     
   1   124   1     0     1     1  1.61e+05   1.61e+05   1296.     
   1   125   1     0     1     1  1.62e+05   1.62e+05   1296.     
   1   126   1     0     1     1  1.63e+05   1.63e+05   1296.     
   1   127   1     0     1     1  1.65e+05   1.65e+05   1296.     
   1   128   1     0     1     1  1.66e+05   1.66e+05   1296.     
   1   129   1     0     1     1  1.67e+05   1.67e+05   1296.     
   1   130   1     0     1     1  1.68e+05   1.68e+05   1296.     
   1   131   1     0     1     1  1.70e+05   1.70e+05   1296.     
   1   132   1     0     1     1  1.71e+05   1.71e+05   1296.     
   1   133   1     0     1     1  1.72e+05   1.72e+05   1296.     
   1   134   1     0     1     1  1.74e+05   1.74e+05   1296.     
   1   135   1     0     1     1  1.75e+05   1.75e+05   1296.     
   1   136   1     0     1     1  1.76e+05   1.76e+05   1296.     
   1   137   1     0     1     1  1.78e+05   1.78e+05   1296.     
   1   138   1     0     1     1  1.79e+05   1.79e+05   1296.     
   1   139   1     0     1     1  1.80e+05   1.80e+05   1296.     
   1   140   1     0     1     1  1.81e+05   1.81e+05   1296.     
   1   141   1     0     1     1  1.83e+05   1.83e+05   1296.     
   1   142   1     0     1     1  1.84e+05   1.84e+05   1296.     
   1   143   1     0     1     1  1.85e+05   1.85e+05   1296.     
   1   144   1     0     1     1  1.87e+05   1.87e+05   1296.     
   1   145   1     0     1     1  1.88e+05   1.88e+05   1296.     
   1   146   1     0     1     1  1.89e+05   1.89e+05   1296.     
   1   147   1     0     1     1  1.91e+05   1.91e+05   1296.     
   1   148   1     0     1     1  1.92e+05   1.92e+05   1296.     
   1   149   1     0     1     1  1.93e+05   1.93e+05   1296.     
   1   150   1     0     1     1  1.94e+05   1.94e+05   1296.     
   1   151   1     0     1     1  1.96e+05   1.96e+05   1296.     
   1   152   1     0     1     1  1.97e+05   1.97e+05   1296.     
   1   153   1     0     1     1  1.98e+05   1.98e+05   1296.     
   1   154   1     0     1     1  2.00e+05   2.00e+05   1296.     
   1   155   1     0     1     1  2.01e+05   2.01e+05   1296.     
   1   156   1     0     1     1  2.02e+05   2.02e+05   1296.     
   1   157   1     0     1     1  2.03e+05   2.03e+05   1296.     
   1   158   1     0     1     1  2.05e+05   2.05e+05   1296.     
   1   159   1     0     1     1  2.06e+05   2.06e+05   1296.     
   1   160   1     0     1     1  2.07e+05   2.07e+05   1296.     
   1   161   1     0     1     1  2.09e+05   2.09e+05   1296.     
   1   162   1     0     1     1  2.10e+05   2.10e+05   1296.     
   1   163   1     0     1     1  2.11e+05   2.11e+05   1296.     
   1   164   1     0     1     1  2.13e+05   2.13e+05   1296.     
   1   165   1     0     1     1  2.14e+05   2.14e+05   1296.     
   1   166   1     0     1     1  2.15e+05   2.15e+05   1296.     
   1   167   1     0     1     1  2.16e+05   2.16e+05   1296.     
   1   168   1     0     1     1  2.18e+05   2.18e+05   1296.     
   1   169   1     0     1     1  2.19e+05   2.19e+05   1296.     
   1   170   1     0     1     1  2.20e+05   2.20e+05   1296.     
   1   171   1     0     1     1  2.22e+05   2.22e+05   1296.     
   1   172   1     0     1     1  2.23e+05   2.23e+05   1296.     
   1   173   1     0     1     1  2.24e+05   2.24e+05   1296.     
   1   174   1     0     1     1  2.26e+05   2.26e+05   1296.     
   1   175   1     0     1     1  2.27e+05   2.27e+05   1296.     
   1   176   1     0     1     1  2.28e+05   2.28e+05   1296.     
   1   177   1     0     1     1  2.29e+05   2.29e+05   1296.     
   1   178   1     0     1     1  2.31e+05   2.31e+05   1296.     
   1   179   1     0     1     1  2.32e+05   2.32e+05   1296.     
   1   180   1     0     1     1  2.33e+05   2.33e+05   1296.     
   1   181   1     0     1     1  2.35e+05   2.35e+05   1296.     
   1   182   1     0     1     1  2.36e+05   2.36e+05   1296.     
   1   183   1     0     1     1  2.37e+05   2.37e+05   1296.     
   1   184   1     0     1     1  2.38e+05   2.38e+05   1296.     
   1   185   1     0     1     1  2.40e+05   2.40e+05   1296.     
   1   186   1     0     1     1  2.41e+05   2.41e+05   1296.     
   1   187   1     0     1     1  2.42e+05   2.42e+05   1296.     
   1   188   1     0     1     1  2.44e+05   2.44e+05   1296.     
   1   189   1     0     1     1  2.45e+05   2.45e+05   1296.     
   1   190   1     0     1     1  2.46e+05   2.46e+05   1296.     
   1   191   1     0     1     1  2.48e+05   2.48e+05   1296.     
   1   192   1     0     1     1  2.49e+05   2.49e+05   1296.     
   1   193   1     0     1     1  2.50e+05   2.50e+05   1296.     
   1   194   1     0     1     1  2.51e+05   2.51e+05   1296.     
   1   195   1     0     1     1  2.53e+05   2.53e+05   1296.     
   1   196   1     0     1     1  2.54e+05   2.54e+05   1296.     
   1   197   1     0     1     1  2.55e+05   2.55e+05   1296.     
   1   198   1     0     1     1  2.57e+05   2.57e+05   1296.     
   1   199   1     0     1     1  2.58e+05   2.58e+05   1296.     
   1   200   1     0     1     1  2.59e+05   2.59e+05   1296.     
                          
 THE ANALYSIS HAS COMPLETED SUCCESSFULLY
