*Heading
** Job name: SupraPlus_4420_diffusion Model name: SupraPlus_4420
** Generated by: Abaqus/CAE 2023.HF4
*Preprint, echo=NO, model=NO, history=NO, contact=NO
**
** PARTS
**
*Part, name=Part-1
*Node
      1, 0.0149999997, 0.00179999997,           0.
      2, 0.0149999997, 0.00179999997, 0.000899999985
      3, 0.0149999997,           0., 0.000899999985
      4, 0.0149999997,           0.,           0.
      5,           0., 0.00179999997, 0.000899999985
      6,           0.,           0., 0.000899999985
      7,           0.,           0.,           0.
      8,           0., 0.00179999997,           0.
      9,           0., 0.00270000007,           0.
     10,           0., 0.00270000007, 0.000899999985
     11,           0., 0.00449999981, 0.000899999985
     12,           0., 0.00449999981,           0.
     13, 0.0149999997, 0.00270000007, 0.000899999985
     14, 0.0149999997, 0.00449999981, 0.000899999985
     15, 0.0149999997, 0.00449999981,           0.
     16, 0.0149999997, 0.00270000007,           0.
     17, 0.0149999997, 0.00179999997, 0.000224999996
     18, 0.0149999997, 0.00179999997, 0.000449999992
     19, 0.0149999997, 0.00179999997, 0.000675000018
     20, 0.0149999997,     0.001575, 0.000899999985
** ... 7120 like lines cut
*Element, type=C3D8T
   1,  188, 1603, 3775,  679,    1,   17,  637,   36
   2, 1603, 1604, 3776, 3775,   17,   18,  638,  637
   3, 1604, 1605, 3777, 3776,   18,   19,  639,  638
   4, 1605,  255, 1141, 3777,   19,    2,   20,  639
   5,  679, 3775, 3778,  680,   36,  637,  640,   35
   6, 3775, 3776, 3779, 3778,  637,  638,  641,  640
   7, 3776, 3777, 3780, 3779,  638,  639,  642,  641
   8, 3777, 1141, 1142, 3780,  639,   20,   21,  642
   9,  680, 3778, 3781,  681,   35,  640,  643,   34
  10, 3778, 3779, 3782, 3781,  640,  641,  644,  643
  11, 3779, 3780, 3783, 3782,  641,  642,  645,  644
  12, 3780, 1142, 1143, 3783,  642,   21,   22,  645
  13,  681, 3781, 3784,  682,   34,  643,  646,   33
  14, 3781, 3782, 3785, 3784,  643,  644,  647,  646
  15, 3782, 3783, 3786, 3785,  644,  645,  648,  647
  16, 3783, 1143, 1144, 3786,  645,   22,   23,  648
  17,  682, 3784, 3787,  683,   33,  646,  649,   32
  18, 3784, 3785, 3788, 3787,  646,  647,  650,  649
  19, 3785, 3786, 3789, 3788,  647,  648,  651,  650
  20, 3786, 1144, 1145, 3789,  648,   23,   24,  651
** ... 5340 like lines cut
*Nset, nset=Set-3, generate
    1,  7140,     1
*Elset, elset=Set-3, generate
    1,  5360,     1
** Section: Section-1
*Solid Section, elset=Set-3, material=Material-1
,
*End Part
**  
**
** ASSEMBLY
**
*Assembly, name=Assembly
**  
*Instance, name=Part-1-1, part=Part-1
*End Instance
**  
*Nset, nset=Set-1, instance=Part-1-1
    1,    2,    3,    4,    5,    6,    7,    8,    9,   10,   11,   12,   13,   14,   15,   16
   17,   18,   19,   20,   21,   22,   23,   24,   25,   26,   27,   28,   29,   30,   31,   32
   33,   34,   35,   36,   37,   38,   39,   40,   41,   42,   43,   44,   45,   46,   47,   48
   49,   50,   51,   52,   53,   54,   55,   56,   57,   58,   59,   60,   61,   62,   63,   64
   65,   66,   67,   68,   69,   70,   71,   72,   73,   74,   75,   76,   77,   78,   79,   80
   81,   82,   83,   84,   85,   86,   87,   88,   89,   90,   91,   92,   93,   94,   95,   96
   97,   98,   99,  100,  101,  102,  103,  104,  105,  106,  107,  108,  109,  110,  111,  112
  113,  114,  115,  116,  117,  118,  119,  120,  121,  122,  123,  124,  125,  126,  127,  128
  129,  130,  131,  132,  133,  134,  135,  136,  137,  138,  139,  140,  141,  142,  143,  144
  145,  146,  147,  148,  149,  150,  151,  152,  153,  154,  155,  156,  157,  158,  159,  160
  161,  162,  163,  164,  165,  166,  167,  168,  169,  170,  171,  172,  173,  174,  175,  176
  177,  178,  179,  180,  181,  182,  183,  184,  185,  186,  187,  188,  189,  190,  191,  192
  193,  194,  195,  196,  197,  198,  199,  200,  201,  202,  203,  204,  205,  206,  207,  208
  209,  210,  211,  212,  213,  214,  215,  216,  217,  218,  219,  220,  221,  222,  223,  224
  225,  226,  227,  228,  229,  230,  231,  232,  233,  234,  235,  236,  237,  238,  239,  240
  241,  242,  243,  244,  245,  246,  247,  248,  249,  250,  251,  252,  253,  254,  255,  256
  257,  258,  259,  260,  261,  262,  263,  264,  265,  266,  267,  268,  269,  270,  271,  272
  273,  274,  275,  276,  277,  278,  279,  280,  281,  282,  283,  284,  285,  286,  287,  288
  289,  290,  291,  292,  293,  294,  295,  296,  297,  298,  299,  300,  301,  302,  303,  304
  305,  306,  307,  308,  309,  310,  311,  312,  313,  314,  315,  316,  317,  318,  319,  320
** ... 191 like lines cut
*Elset, elset=Set-1, instance=Part-1-1
    1,    2,    3,    4,    5,    6,    7,    8,    9,   10,   11,   12,   13,   14,   15,   16
   17,   18,   19,   20,   21,   22,   23,   24,   25,   26,   27,   28,   29,   30,   31,   32
   33,   36,   37,   40,   41,   44,   45,   48,   49,   52,   53,   56,   57,   60,   61,   62
   63,   64,   65,   68,   69,   72,   73,   76,   77,   80,   81,   84,   85,   88,   89,   92
   93,   94,   95,   96,   97,  100,  101,  104,  105,  108,  109,  112,  113,  116,  117,  120
  121,  124,  125,  126,  127,  128,  129,  132,  133,  136,  137,  140,  141,  144,  145,  148
  149,  152,  153,  156,  157,  158,  159,  160,  161,  164,  165,  168,  169,  172,  173,  176
  177,  180,  181,  184,  185,  188,  189,  190,  191,  192,  193,  196,  197,  200,  201,  204
  205,  208,  209,  212,  213,  216,  217,  220,  221,  222,  223,  224,  225,  228,  229,  232
  233,  236,  237,  240,  241,  244,  245,  248,  249,  252,  253,  254,  255,  256,  257,  260
  261,  264,  265,  268,  269,  272,  273,  276,  277,  280,  281,  284,  285,  286,  287,  288
  289,  292,  293,  296,  297,  300,  301,  304,  305,  308,  309,  312,  313,  316,  317,  318
  319,  320,  321,  324,  325,  328,  329,  332,  333,  336,  337,  340,  341,  344,  345,  348
  349,  350,  351,  352,  353,  356,  357,  360,  361,  364,  365,  368,  369,  372,  373,  376
  377,  380,  381,  382,  383,  384,  385,  388,  389,  392,  393,  396,  397,  400,  401,  404
  405,  408,  409,  412,  413,  414,  415,  416,  417,  420,  421,  424,  425,  428,  429,  432
  433,  436,  437,  440,  441,  444,  445,  446,  447,  448,  449,  452,  453,  456,  457,  460
  461,  464,  465,  468,  469,  472,  473,  476,  477,  478,  479,  480,  481,  484,  485,  488
  489,  492,  493,  496,  497,  500,  501,  504,  505,  508,  509,  510,  511,  512,  513,  516
  517,  520,  521,  524,  525,  528,  529,  532,  533,  536,  537,  540,  541,  542,  543,  544
** ... 169 like lines cut
*Nset, nset=Set-2, instance=Part-1-1, generate
    1,  7140,     1
*Elset, elset=Set-2, instance=Part-1-1, generate
    1,  5360,     1
*End Assembly
*Amplitude, name=Amp-1
             0.,              1.,         259200.,              1.
** 
** MATERIALS
** 
*Material, name=Material-1
*Density
1.,
*Depvar
      2,
*User Material, constants=4, type=THERMAL
 8.31446,    300.,   2e-06, 1.4e-15
*User Material, constants=2, type=MECHANICAL
 2e+11, 0.3
** 
** PREDEFINED FIELDS
** 
** Name: Predefined Field-1   Type: Temperature
*Initial Conditions, type=TEMPERATURE
Set-2, 0.
** ----------------------------------------------------------------
** 
** STEP: Step-1
** 
*Step, name=Step-1, nlgeom=YES, inc=100000
*Coupled Temperature-displacement, creep=none
1296., 259200., 
** 
** BOUNDARY CONDITIONS
** 
** Name: diffusion Type: Temperature
*Boundary, amplitude=Amp-1
Set-1, 11, 11, 2127.67
** 
** OUTPUT REQUESTS
** 
*Restart, write, frequency=0
** 
** FIELD OUTPUT: F-Output-1
** 
*Output, field, number interval=100
*Element Output, directions=YES
SDV, 
*Output, history, frequency=0
*End Step
