*Heading
** Job name: elastic_plate_3D Model name: elastic_plate_3D
** Generated by: Abaqus/CAE 2023.HF4
*Preprint, echo=NO, model=NO, history=NO, contact=NO
**
** PARTS
**
*Part, name=elastic-hold-plate
*Node
      1, 0.0529999994, 0.0181120001, 0.00200000009
      2, 0.0529999994, 0.0181120001, 0.00100000005
      3, 0.0529999994, 0.0181120001,           0.
      4, 0.0529999994, 0.0201066658, 0.00200000009
      5, 0.0529999994, 0.0201066658, 0.00100000005
      6, 0.0529999994, 0.0201066658,           0.
      7, 0.0529999994, 0.0221013334, 0.00200000009
      8, 0.0529999994, 0.0221013334, 0.00100000005
      9, 0.0529999994, 0.0221013334,           0.
     10, 0.0529999994, 0.0240959991, 0.00200000009
     11, 0.0529999994, 0.0240959991, 0.00100000005
     12, 0.0529999994, 0.0240959991,           0.
     13, 0.0529999994, 0.0260906667, 0.00200000009
     14, 0.0529999994, 0.0260906667, 0.00100000005
     15, 0.0529999994, 0.0260906667,           0.
     16, 0.0529999994, 0.0280853342, 0.00200000009
     17, 0.0529999994, 0.0280853342, 0.00100000005
     18, 0.0529999994, 0.0280853342,           0.
     19, 0.0529999994, 0.0300799999, 0.00200000009
     20, 0.0529999994, 0.0300799999, 0.00100000005
** ... 4816 like lines cut
*Element, type=C3D8T
  1,   67,   68,   71,   70,    1,    2,    5,    4
  2,   68,   69,   72,   71,    2,    3,    6,    5
  3,   70,   71,   74,   73,    4,    5,    8,    7
  4,   71,   72,   75,   74,    5,    6,    9,    8
  5,   73,   74,   77,   76,    7,    8,   11,   10
  6,   74,   75,   78,   77,    8,    9,   12,   11
  7,   76,   77,   80,   79,   10,   11,   14,   13
  8,   77,   78,   81,   80,   11,   12,   15,   14
  9,   79,   80,   83,   82,   13,   14,   17,   16
 10,   80,   81,   84,   83,   14,   15,   18,   17
 11,   82,   83,   86,   85,   16,   17,   20,   19
 12,   83,   84,   87,   86,   17,   18,   21,   20
 13,   85,   86,   89,   88,   19,   20,   23,   22
 14,   86,   87,   90,   89,   20,   21,   24,   23
 15,   88,   89,   92,   91,   22,   23,   26,   25
 16,   89,   90,   93,   92,   23,   24,   27,   26
 17,   91,   92,   95,   94,   25,   26,   29,   28
 18,   92,   93,   96,   95,   26,   27,   30,   29
 19,   94,   95,   98,   97,   28,   29,   32,   31
 20,   95,   96,   99,   98,   29,   30,   33,   32
** ... 3006 like lines cut
*Nset, nset=Set-1, generate
    1,  4836,     1
*Elset, elset=Set-1, generate
    1,  3026,     1
** Section: Section-1
*Solid Section, elset=Set-1, material=thermomechanical
,
*End Part
**  
**
** ASSEMBLY
**
*Assembly, name=Assembly
**  
*Instance, name=elastic-hold-plate-1, part=elastic-hold-plate
*End Instance
**  
*Nset, nset=whole_part, instance=elastic-hold-plate-1, generate
    1,  4836,     1
*Elset, elset=whole_part, instance=elastic-hold-plate-1, generate
    1,  3026,     1
*Nset, nset=xsymm_side, instance=elastic-hold-plate-1
 1283, 1284, 1285, 1286, 1287, 1288, 1289, 1290, 1291, 1292, 1293, 1294, 1295, 1296, 1297, 1298
 1299, 1300, 1301, 1302, 1334, 1335, 1336, 1337, 1338, 1339, 1340, 1344, 1345, 1346, 1347, 1348
 1349, 1350, 1353, 1355, 1371, 1376, 1377, 1379, 1380, 1389, 1393, 1396, 1402, 1404, 1418, 1419
 1420, 1465, 1469, 1472, 1473, 1476, 1477, 1484, 1485, 1488, 1489, 1499, 1514, 1515, 1516, 1518
 1526, 1530, 3440, 3441, 3442, 3443, 3444, 3445, 3446, 3447, 3448, 3449, 3450, 3451, 3452, 3453
 3454, 3455, 3456, 3457, 3458, 3459, 3460, 3461, 3462, 3463, 3464, 3465, 3466, 3467, 3468, 3469
 3470, 3471, 3472, 3473, 3474, 3475, 3479, 3484, 3490, 3498, 3499, 3504, 3509, 3523, 3548, 3549
 3550, 3551, 3552, 3553, 3554, 3555, 3556, 3597, 3598, 3599, 3600, 3601, 3602, 3603, 3604, 3605
 3606, 3607, 3619, 3630, 3642, 3643, 3644, 3657, 3658, 3659, 3660, 3661, 3662, 3663, 3667, 3672
 3675, 3685, 3692, 3700, 3705, 3707, 3711, 3713, 3718, 3720, 3722, 3730, 3739, 3740, 3741, 3754
 3755, 3756, 3757, 3759, 3761, 3768, 3773, 3776, 3777, 3782, 3787
*Elset, elset=xsymm_side, instance=elastic-hold-plate-1
  883,  884,  885,  886,  887,  888,  889,  890,  891,  892,  893,  894,  895,  896,  897,  898
  899,  900,  901,  902,  903, 1072, 1073, 1074, 1075, 1076, 1077, 1078, 1079, 1080, 1081, 1082
 1083, 1084, 1085, 1086, 1087, 1088, 1089, 1090, 1091, 1092, 1399, 1400, 1404, 1407, 1415, 1416
 1418, 1420, 1422, 1423, 1424, 1425, 1426, 1427, 1428, 1429, 1430, 1431, 1432, 1433, 1434, 1435
 1436, 1437, 1438, 1500, 1504, 1509, 1521, 1523, 1526, 1529, 1539, 1585, 1614, 2213, 2214, 2218
 2221, 2229, 2230, 2232, 2234, 2236, 2237, 2238, 2239, 2240, 2241, 2242, 2243, 2244, 2245, 2246
 2247, 2248, 2249, 2250, 2251, 2252, 2314, 2318, 2323, 2335, 2337, 2340, 2343, 2353, 2399, 2428
*Nset, nset=ysymm_side, instance=elastic-hold-plate-1
 1783, 1787, 1793, 1805, 1820, 1831, 1850, 1860, 1861, 1868, 1874, 1885, 1901, 1915, 1920, 1941
 2003, 2004, 2005, 2006, 2007, 2008, 2009, 2010, 2011, 2012, 2013, 2014, 2015, 2016, 2017, 2018
 2032, 2074, 2075, 2076, 2077, 2078, 2083, 2084, 2085, 2086, 2087, 2092, 2093, 2094, 2095, 2106
 2119, 2120, 2122, 2123, 2134, 2135, 3375, 3376, 3377, 3378, 3379, 3380, 3381, 3382, 3383, 3384
 3385, 3386, 3387, 3388, 3389, 3390, 3391, 3392, 3393, 3394, 3395, 3396, 3397, 3398, 3399, 3400
 3401, 3402, 3403, 3404, 3405, 3406, 3407, 3408, 3409, 3482, 3483, 3488, 3496, 3497, 3501, 3506
 3508, 3511, 3519, 3567, 3568, 3569, 3570, 3571, 3572, 3573, 3574, 3575, 3576, 3577, 3578, 3579
 3580, 3581, 3582, 3583, 3584, 3585, 3586, 3587, 3588, 3617, 3618, 3625, 3649, 3650, 3651, 3652
 3653, 3664, 3666, 3676, 3677, 3681, 3690, 3696, 3702, 3703, 3704, 3714, 3716, 3719, 3723, 3726
 3745, 3746, 3747, 3748, 3749, 3750, 3751, 3752, 3763, 3770, 3771, 3780, 3786, 3789, 3790, 3791
 3792, 3793
*Elset, elset=ysymm_side, instance=elastic-hold-plate-1
 1229, 1230, 1231, 1232, 1233, 1234, 1235, 1236, 1237, 1238, 1239, 1240, 1241, 1242, 1243, 1244
 1245, 1382, 1383, 1384, 1385, 1386, 1387, 1388, 1389, 1390, 1391, 1392, 1393, 1394, 1395, 1396
 1397, 1398, 1439, 1460, 1461, 1463, 1464, 1465, 1466, 1467, 1468, 1469, 1470, 1471, 1472, 1473
 1474, 1475, 1476, 1477, 1478, 1479, 1480, 1481, 1482, 1484, 1485, 1487, 1489, 1490, 1491, 1508
 1512, 1518, 1550, 1564, 1571, 1578, 2253, 2274, 2275, 2277, 2278, 2279, 2280, 2281, 2282, 2283
 2284, 2285, 2286, 2287, 2288, 2289, 2290, 2291, 2292, 2293, 2294, 2295, 2296, 2298, 2299, 2301
 2303, 2304, 2305, 2322, 2326, 2332, 2364, 2378, 2385, 2392
*Nset, nset=zsymm_side, instance=elastic-hold-plate-1
    1,    3,    4,    6,    7,    9,   10,   12,   13,   15,   16,   18,   19,   21,   22,   24
   25,   27,   28,   30,   31,   33,   34,   36,   37,   39,   40,   42,   43,   45,   46,   48
   49,   51,   52,   54,   55,   57,   58,   60,   61,   63,   64,   66,   67,   69,   70,   72
   73,   75,   76,   78,   79,   81,   82,   84,   85,   87,   88,   90,   91,   93,   94,   96
   97,   99,  100,  102,  103,  105,  106,  108,  109,  111,  112,  114,  115,  117,  118,  120
  121,  123,  124,  126,  127,  129,  130,  132,  133,  135,  136,  138,  139,  141,  142,  144
  145,  147,  148,  150,  151,  153,  154,  156,  157,  159,  160,  162,  163,  165,  166,  168
  169,  171,  172,  174,  175,  177,  178,  180,  181,  183,  184,  186,  187,  189,  190,  192
  193,  195,  196,  198,  199,  201,  202,  204,  205,  207,  208,  210,  211,  213,  214,  216
  217,  219,  220,  222,  223,  225,  226,  228,  229,  231,  232,  234,  235,  237,  238,  240
  241,  243,  244,  246,  247,  249,  250,  252,  253,  255,  256,  258,  259,  261,  262,  264
  265,  267,  268,  270,  271,  273,  274,  276,  277,  279,  280,  282,  283,  285,  286,  288
  289,  291,  292,  294,  295,  297,  298,  300,  301,  303,  304,  306,  307,  309,  310,  312
  313,  315,  316,  318,  319,  321,  322,  324,  325,  327,  328,  330,  331,  333,  334,  336
  337,  339,  340,  342,  343,  345,  346,  348,  349,  351,  352,  354,  355,  357,  358,  360
  361,  363,  364,  366,  367,  369,  370,  372,  373,  375,  376,  378,  379,  381,  382,  384
  385,  387,  388,  390,  391,  393,  394,  396,  397,  399,  400,  402,  403,  405,  406,  408
  409,  411,  412,  414,  415,  417,  418,  420,  421,  423,  424,  426,  427,  429,  430,  432
  433,  435,  436,  438,  439,  441,  442,  444,  445,  447,  448,  450,  451,  453,  454,  456
  457,  459,  460,  462,  463,  465,  466,  468,  469,  471,  472,  474,  475,  477,  478,  480
** ... 182 like lines cut
*Elset, elset=zsymm_side, instance=elastic-hold-plate-1, generate
    1,  3026,     1
*Elset, elset=_Surf-1_S5, internal, instance=elastic-hold-plate-1
  41,  42,  83,  84, 125, 126, 167, 168, 209, 210, 251, 252, 293, 294, 335, 336
 377, 378, 419, 420, 461, 462, 503, 504, 545, 546, 587, 588, 629, 630, 671, 672
 713, 714
*Elset, elset=_Surf-1_S6, internal, instance=elastic-hold-plate-1, generate
  715,  1072,    21
*Surface, type=ELEMENT, name=Surf-1
_Surf-1_S5, S5
_Surf-1_S6, S6
*End Assembly
** 
** MATERIALS
** 
*Material, name=thermomechanical
*Density
1.,
*Depvar
      0,
*User Defined Field
*User Material, constants=1, type=THERMAL
0.,
*User Material, constants=1, type=MECHANICAL
0.,
*User Output Variables
      0,
** 
** PREDEFINED FIELDS
** 
** Name: Cbar_L   Type: Temperature
*Initial Conditions, type=TEMPERATURE
whole_part, 20.
** ----------------------------------------------------------------
** 
** STEP: Step-1
** 
*Step, name=Step-1, nlgeom=YES, inc=10000000
*Coupled Temperature-displacement, creep=none, deltmx=10.
5e+06, 1e+10, 1e+06, 1e+07
** 
** BOUNDARY CONDITIONS
** 
** Name: Xsymm Type: Symmetry/Antisymmetry/Encastre
*Boundary
xsymm_side, XSYMM
** Name: Ysymm Type: Symmetry/Antisymmetry/Encastre
*Boundary
ysymm_side, YSYMM
** Name: Zsymm Type: Symmetry/Antisymmetry/Encastre
*Boundary
zsymm_side, ZSYMM
** 
** LOADS
** 
** Name: Load-1   Type: Pressure
*Dsload
Surf-1, P, -1e+08
** 
** PREDEFINED FIELDS
** 
** Name: UFIELD   Type: Field
*Field, variable=1, user
whole_part
** 
** OUTPUT REQUESTS
** 
*Restart, write, frequency=0
** 
** FIELD OUTPUT: F-Output-1
** 
*Output, field
*Node Output
COORD, NT, RF, U
*Element Output, directions=YES
COORD, LE, S, SDV, UVARM
*Output, history, frequency=0
*End Step
