**************** UNITS: SI (m) ****************
**
** Length: m
** Time: s
** Force: N
** Stress: Pa
** Mass: kg = (N*s^2)/m
** Density: kg/m^3
**
************************************************
*Heading
** Job name: elastic_plate_3D Model name: elastic_plate_3D
** Generated by: Abaqus/CAE 2023.HF4
*Preprint, echo=NO, model=NO, history=NO, contact=NO
**
** PARTS
**
*Part, name=elastic-hold-plate
********************************************
*INCLUDE, INPUT="processing_input/nodes.inc"
********************************************
***********************************************
*INCLUDE, INPUT="processing_input/elements.inc"
***********************************************
*Nset, nset=Set-1, generate
1,  4836,     1
*Elset, elset=Set-1, generate
1,  3026,     1
** Section: Section-1
*Solid Section, elset=Set-1, material=thermomechanical
,
*End Part
**
**
** ASSEMBLY
**
*Assembly, name=Assembly
**
*Instance, name=elastic-hold-plate-1, part=elastic-hold-plate
*End Instance
**
*Nset, nset=whole_part, instance=elastic-hold-plate-1, generate
1,  4836,     1
*Elset, elset=whole_part, instance=elastic-hold-plate-1, generate
1,  3026,     1
*Nset, nset=xsymm_side, instance=elastic-hold-plate-1
1283, 1284, 1285, 1286, 1287, 1288, 1289, 1290, 1291, 1292, 1293, 1294, 1295, 1296, 1297, 1298
1299, 1300, 1301, 1302, 1334, 1335, 1336, 1337, 1338, 1339, 1340, 1344, 1345, 1346, 1347, 1348
1349, 1350, 1353, 1355, 1371, 1376, 1377, 1379, 1380, 1389, 1393, 1396, 1402, 1404, 1418, 1419
1420, 1465, 1469, 1472, 1473, 1476, 1477, 1484, 1485, 1488, 1489, 1499, 1514, 1515, 1516, 1518
1526, 1530, 3440, 3441, 3442, 3443, 3444, 3445, 3446, 3447, 3448, 3449, 3450, 3451, 3452, 3453
3454, 3455, 3456, 3457, 3458, 3459, 3460, 3461, 3462, 3463, 3464, 3465, 3466, 3467, 3468, 3469
3470, 3471, 3472, 3473, 3474, 3475, 3479, 3484, 3490, 3498, 3499, 3504, 3509, 3523, 3548, 3549
3550, 3551, 3552, 3553, 3554, 3555, 3556, 3597, 3598, 3599, 3600, 3601, 3602, 3603, 3604, 3605
3606, 3607, 3619, 3630, 3642, 3643, 3644, 3657, 3658, 3659, 3660, 3661, 3662, 3663, 3667, 3672
3675, 3685, 3692, 3700, 3705, 3707, 3711, 3713, 3718, 3720, 3722, 3730, 3739, 3740, 3741, 3754
3755, 3756, 3757, 3759, 3761, 3768, 3773, 3776, 3777, 3782, 3787
*Elset, elset=xsymm_side, instance=elastic-hold-plate-1
883,  884,  885,  886,  887,  888,  889,  890,  891,  892,  893,  894,  895,  896,  897,  898
899,  900,  901,  902,  903, 1072, 1073, 1074, 1075, 1076, 1077, 1078, 1079, 1080, 1081, 1082
1083, 1084, 1085, 1086, 1087, 1088, 1089, 1090, 1091, 1092, 1399, 1400, 1404, 1407, 1415, 1416
1418, 1420, 1422, 1423, 1424, 1425, 1426, 1427, 1428, 1429, 1430, 1431, 1432, 1433, 1434, 1435
1436, 1437, 1438, 1500, 1504, 1509, 1521, 1523, 1526, 1529, 1539, 1585, 1614, 2213, 2214, 2218
2221, 2229, 2230, 2232, 2234, 2236, 2237, 2238, 2239, 2240, 2241, 2242, 2243, 2244, 2245, 2246
2247, 2248, 2249, 2250, 2251, 2252, 2314, 2318, 2323, 2335, 2337, 2340, 2343, 2353, 2399, 2428
*Nset, nset=ysymm_side, instance=elastic-hold-plate-1
1783, 1787, 1793, 1805, 1820, 1831, 1850, 1860, 1861, 1868, 1874, 1885, 1901, 1915, 1920, 1941
2003, 2004, 2005, 2006, 2007, 2008, 2009, 2010, 2011, 2012, 2013, 2014, 2015, 2016, 2017, 2018
2032, 2074, 2075, 2076, 2077, 2078, 2083, 2084, 2085, 2086, 2087, 2092, 2093, 2094, 2095, 2106
2119, 2120, 2122, 2123, 2134, 2135, 3375, 3376, 3377, 3378, 3379, 3380, 3381, 3382, 3383, 3384
3385, 3386, 3387, 3388, 3389, 3390, 3391, 3392, 3393, 3394, 3395, 3396, 3397, 3398, 3399, 3400
3401, 3402, 3403, 3404, 3405, 3406, 3407, 3408, 3409, 3482, 3483, 3488, 3496, 3497, 3501, 3506
3508, 3511, 3519, 3567, 3568, 3569, 3570, 3571, 3572, 3573, 3574, 3575, 3576, 3577, 3578, 3579
3580, 3581, 3582, 3583, 3584, 3585, 3586, 3587, 3588, 3617, 3618, 3625, 3649, 3650, 3651, 3652
3653, 3664, 3666, 3676, 3677, 3681, 3690, 3696, 3702, 3703, 3704, 3714, 3716, 3719, 3723, 3726
3745, 3746, 3747, 3748, 3749, 3750, 3751, 3752, 3763, 3770, 3771, 3780, 3786, 3789, 3790, 3791
3792, 3793
*Elset, elset=ysymm_side, instance=elastic-hold-plate-1
1229, 1230, 1231, 1232, 1233, 1234, 1235, 1236, 1237, 1238, 1239, 1240, 1241, 1242, 1243, 1244
1245, 1382, 1383, 1384, 1385, 1386, 1387, 1388, 1389, 1390, 1391, 1392, 1393, 1394, 1395, 1396
1397, 1398, 1439, 1460, 1461, 1463, 1464, 1465, 1466, 1467, 1468, 1469, 1470, 1471, 1472, 1473
1474, 1475, 1476, 1477, 1478, 1479, 1480, 1481, 1482, 1484, 1485, 1487, 1489, 1490, 1491, 1508
1512, 1518, 1550, 1564, 1571, 1578, 2253, 2274, 2275, 2277, 2278, 2279, 2280, 2281, 2282, 2283
2284, 2285, 2286, 2287, 2288, 2289, 2290, 2291, 2292, 2293, 2294, 2295, 2296, 2298, 2299, 2301
2303, 2304, 2305, 2322, 2326, 2332, 2364, 2378, 2385, 2392
*Nset, nset=zsymm_side, instance=elastic-hold-plate-1
1,    3,    4,    6,    7,    9,   10,   12,   13,   15,   16,   18,   19,   21,   22,   24
25,   27,   28,   30,   31,   33,   34,   36,   37,   39,   40,   42,   43,   45,   46,   48
49,   51,   52,   54,   55,   57,   58,   60,   61,   63,   64,   66,   67,   69,   70,   72
73,   75,   76,   78,   79,   81,   82,   84,   85,   87,   88,   90,   91,   93,   94,   96
97,   99,  100,  102,  103,  105,  106,  108,  109,  111,  112,  114,  115,  117,  118,  120
121,  123,  124,  126,  127,  129,  130,  132,  133,  135,  136,  138,  139,  141,  142,  144
145,  147,  148,  150,  151,  153,  154,  156,  157,  159,  160,  162,  163,  165,  166,  168
169,  171,  172,  174,  175,  177,  178,  180,  181,  183,  184,  186,  187,  189,  190,  192
193,  195,  196,  198,  199,  201,  202,  204,  205,  207,  208,  210,  211,  213,  214,  216
217,  219,  220,  222,  223,  225,  226,  228,  229,  231,  232,  234,  235,  237,  238,  240
241,  243,  244,  246,  247,  249,  250,  252,  253,  255,  256,  258,  259,  261,  262,  264
265,  267,  268,  270,  271,  273,  274,  276,  277,  279,  280,  282,  283,  285,  286,  288
289,  291,  292,  294,  295,  297,  298,  300,  301,  303,  304,  306,  307,  309,  310,  312
313,  315,  316,  318,  319,  321,  322,  324,  325,  327,  328,  330,  331,  333,  334,  336
337,  339,  340,  342,  343,  345,  346,  348,  349,  351,  352,  354,  355,  357,  358,  360
361,  363,  364,  366,  367,  369,  370,  372,  373,  375,  376,  378,  379,  381,  382,  384
385,  387,  388,  390,  391,  393,  394,  396,  397,  399,  400,  402,  403,  405,  406,  408
409,  411,  412,  414,  415,  417,  418,  420,  421,  423,  424,  426,  427,  429,  430,  432
433,  435,  436,  438,  439,  441,  442,  444,  445,  447,  448,  450,  451,  453,  454,  456
457,  459,  460,  462,  463,  465,  466,  468,  469,  471,  472,  474,  475,  477,  478,  480
** ... 182 like lines cut
*Elset, elset=zsymm_side, instance=elastic-hold-plate-1, generate
1,  3026,     1
*Elset, elset=_Surf-1_S5, internal, instance=elastic-hold-plate-1
41,  42,  83,  84, 125, 126, 167, 168, 209, 210, 251, 252, 293, 294, 335, 336
377, 378, 419, 420, 461, 462, 503, 504, 545, 546, 587, 588, 629, 630, 671, 672
713, 714
*Elset, elset=_Surf-1_S6, internal, instance=elastic-hold-plate-1, generate
715,  1072,    21
*Surface, type=ELEMENT, name=Surf-1
_Surf-1_S5, S5
_Surf-1_S6, S6
*End Assembly
**
** MATERIALS
**
*Material, name=thermomechanical
*Density
1.,
*Depvar       
  37,      
1, AR1_sig11, AR1_sig11
2, AR2_sig22, AR2_sig22
3, AR3_sig33, AR3_sig33
4, AR4_sig12, AR4_sig12
5, AR5_sig13, AR5_sig13
6, AR6_sig23, AR6_sig23
7, AR7_stran11, AR7_stran11
8, AR8_stran22, AR8_stran22
9, AR9_stran33, AR9_stran33
10, AR10_stran12, AR10_stran12
11, AR11_stran13, AR11_stran13
12, AR12_stran23, AR12_stran23
13, AR13_eqplas, AR13_eqplas
14, AR14_sig_H, AR14_sig_H
15, AR15_sig_H_grad_X, AR15_sig_H_grad_X
16, AR16_sig_H_grad_Y, AR16_sig_H_grad_Y
17, AR17_sig_H_grad_Z, AR17_sig_H_grad_Z
18, AR18_sig_vonMises, AR18_sig_vonMises
19, AR19_sig_Tresca, AR19_sig_Tresca
20, AR20_sig_P1, AR20_sig_P1
21, AR21_sig_P2, AR21_sig_P2
22, AR22_sig_P3, AR22_sig_P3
23, AR23_triax, AR23_triax
24, AR24_lode, AR24_lode
25, AR25_C_mol, AR25_C_mol
26, AR26_CL_mol, AR26_CL_mol
27, AR27_CT_mol, AR27_CT_mol
28, AR28_C_wtppm, AR28_C_wtppm
29, AR29_CL_wtppm, AR29_CL_wtppm
30, AR30_CT_wtppm, AR30_CT_wtppm
31, AR31_thetaL, AR31_thetaL
32, AR32_thetaT_dis, AR32_thetaT_dis
33, AR33_mu, AR33_mu
34, AR34_theta_coverage, AR34_theta_coverage
35, AR35_k_HEHE, AR35_k_HEHE
36, AR36_dCT_dCL, AR36_dCT_dCL
37, AR37_dCT_deqplas, AR37_dCT_deqplas
*User Defined Field
*User Material, constants=40, type=THERMAL
**
** =============================
**
** HYDROGEN DIFFUSION PROPERTIES
**
1.0e0, 1, 2.866e-10, 3.571e-10, 6.0e0, 1.0e0, 8.31446e0, 1
** scaling_factor - SFD (dimless), crystal_structure (1 - BCC | 2 - FCC), Lattice parameter for BCC - a_lattice_BCC (m), Lattice parameter for FCC - a_lattice_FCC (m)
** Number of hydrogen atoms that can reside in each BCC lattice site - beta_BCC (dimless), Number of hydrogen atoms that can reside in each FCC lattice site - beta_FCC (dimless), Universal gas constant - R (N*m)/(mol*K), Temperature mode (1 - constant | 2 - predefined field)
300.0e0, 2e-06, 1, 1.12987e-10, 1.07964e-9, 5630, 8.518e+28, 6.02214e+23
** Temperature - T (K), Partial molar volume - VH (m^3/mol), Coefficient formula (1 - directly using DL | 2 - using DL = DL0 * exp(-WB_L/RT)), Diffusion coefficient - DL (m^2/s)
** Pre-exponentiation factor for coefficient - DL0 (m^2/s), Activation energy for jumping between lattice sites - WB_L (N*m/mol) , Number of solvent metal atoms per unit volume - NL (1/m^3), Avogadro's constant - avogadro (1/mol)
30000.0e0, 20.0e0, 0.0e0, 3, 1, 2, 2.0e+16, 1.0e+10 
** Gibbs free energy difference between the decohering interface and the surrounding material - delta_g_b0 (N*m/mol), Initial total hydrogen concentration - C0_mol (mol/m^3), Initial chemical potential - mu0 (J/mol), ntrap (0 - no traps | 1 - dislocation | 2 - 5 - more trap types)
** Equilibrium equation (1 - Oriani's equation | 2 - McNabb-Foster's equation), dis_trap_mode (1 - kumnick, krom | 2 - sofronis, dadfarnia), gamma fitting parameter in Dadfarnia et al. - gamma (1/m^2), Dislocation density for the annealed material in Dadfarnia et al. - rho_d0 (1/m^2)
1.0e0,  -20.2e+3, 1.0e0, 8.464e+22, -58.6e+3, 1.0e0, 8.464e+26, -11.5e+3
** Number of interstitial sites per trap site (dislocations) - alpha_1 (dimless), Binding energy of hydrogen to dislocations - WB_1 (N*m/mol), Number of interstitial sites per trap site (trap type 2) - alpha_2 (dimless), Number of traps (trap type 2) - NT_2 (1/m^3)
** Binding energy of hydrogens (trap type 2) - WB_2 (N*m/mol), Number of interstitial sites per trap site (trap type 3) - alpha_3 (dimless), Trap density (trap type 3) - NT_3 (1/m^3), Binding energy of hydrogens (trap type 3) - WB_3 (N*m/mol)
0, 0, 0, 0, 0, 0, 0.0, 0.0
** Number of interstitial sites per trap site (trap type 4) - alpha_4 (dimless), Trap density (trap type 4) - NT_4 (1/m^3), Binding energy of hydrogens (trap type 4) - WB_4 (N*m/mol), Number of interstitial sites per trap site (trap type 5) - alpha_5 (dimless)
** Trap density (trap type 5) - NT_5 (1/m^3), Binding energy of hydrogens (trap type 5) - WB_5 (N*m/mol), none, none
**
*******************************************************
*User Material, constants=208, type=MECHANICAL
**
** =====================
**
** MECHANICAL PROPERTIES
**
1, 210.0e+9, 0.3e0, 0.0, 0.0, 0.0, 0.0, 0.0
** scaling_factor - SFD (dimless), Young's modulus - E (Pa), Poisson ratio - nu (dimless), none
** none, none, none, none
**
** =====================
**
** FLOW CURVE PROPERTIES
**
** True stress (Pa) - PEEQ (dimless) value pairs
869678161.0449681, 0.00e+00, 871526750.9057986, 2.00e-04, 873375340.766629, 4.00e-04, 875223930.6274595, 6.00e-04
877072520.48829, 8.00e-04, 878921110.3491204, 1.00e-03, 888164059.6532726, 2.00e-03, 897407008.9574249, 3.00e-03
906649958.2615771, 4.00e-03, 915892907.5657294, 5.00e-03, 925135856.8698816, 6.00e-03, 934378806.1740339, 7.00e-03
943621755.4781861, 8.00e-03, 952084914.2573354, 9.00e-03, 959844844.4455681, 1.00e-02, 1010427048.128347, 2.00e-02
1033932856.877088, 3.00e-02, 1046208994.675323, 4.00e-02, 1053646043.864796, 5.00e-02, 1058887113.90189, 6.00e-02
1063049789.664365, 7.00e-02, 1066621844.974258, 8.00e-02, 1069826972.390603, 9.00e-02, 1072775596.337999, 1.00e-01
1079364332.391192, 1.25e-01, 1085153292.527981, 1.50e-01, 1090361229.072837, 1.75e-01, 1095119521.753931, 2.00e-01
1099516803.725136, 2.25e-01, 1103616454.340237, 2.50e-01, 1107465617.930734, 2.75e-01, 1111100444.970732, 3.00e-01
1114549345.676761, 3.25e-01, 1117835106.784889, 3.50e-01, 1120976321.237493, 3.75e-01, 1123988384.376853, 4.00e-01
1126884206.721167, 4.25e-01, 1129674735.731992, 4.50e-01, 1132369345.430393, 4.75e-01, 1134976132.463274, 5.00e-01
1137502144.5944, 5.25e-01, 1139953559.498698, 5.50e-01, 1142335826.416837, 5.75e-01, 1144653779.650376, 6.00e-01
1146911730.42548, 6.25e-01, 1149113541.941215, 6.50e-01, 1151262691.203571, 6.75e-01, 1153362320.371291, 7.00e-01
1155415279.70062, 7.25e-01, 1157424163.703626, 7.50e-01, 1159391341.781302, 7.75e-01, 1161318984.325421, 8.00e-01
1163209085.079049, 8.25e-01, 1165063480.388303, 8.50e-01, 1166883865.855659, 8.75e-01, 1168671810.809226, 9.00e-01
1170428770.926746, 9.25e-01, 1172156099.292816, 9.50e-01, 1173855056.119643, 9.75e-01, 1175526817.322782, 1.00e+00
1178793079.730113, 1.05e+00, 1181962875.969868, 1.10e+00, 1185043253.352509, 1.15e+00, 1188040463.847973, 1.20e+00
1190960082.907769, 1.25e+00, 1193807106.535444, 1.30e+00, 1196586031.264007, 1.35e+00, 1199300920.566805, 1.40e+00
1201955460.401725, 1.45e+00, 1204553005.977375, 1.50e+00, 1207096621.372666, 1.55e+00, 1209589113.29554, 1.60e+00
1212033060.002569, 1.65e+00, 1214430836.197691, 1.70e+00, 1216784634.570121, 1.75e+00, 1219096484.507497, 1.80e+00
1221368268.422397, 1.85e+00, 1223601736.052466, 1.90e+00, 1225798517.032026, 1.95e+00, 1227960131.982798, 2.00e+00
** ... 5 like lines cut
**
*******************************************************
*User Output Variables
16,
**
** PREDEFINED FIELDS
**
** Name: Cbar_L   Type: Temperature
*Initial Conditions, type=TEMPERATURE
whole_part, 20.
** ----------------------------------------------------------------
**
** STEP: Step-1
**
*Step, name=Step-1, nlgeom=YES, inc=10000000
*Coupled Temperature-displacement, creep=none, deltmx=10.
5e+06, 1e+10, 1e+06, 1e+07
**
** BOUNDARY CONDITIONS
**
** Name: Xsymm Type: Symmetry/Antisymmetry/Encastre
*Boundary
xsymm_side, XSYMM
** Name: Ysymm Type: Symmetry/Antisymmetry/Encastre
*Boundary
ysymm_side, YSYMM
** Name: Zsymm Type: Symmetry/Antisymmetry/Encastre
*Boundary
zsymm_side, ZSYMM
**
** LOADS
**
** Name: Load-1   Type: Pressure
*Dsload
Surf-1, P, -1e+08
**
** PREDEFINED FIELDS
**
** Name: UFIELD   Type: Field
*Field, variable=1, user
whole_part
*SOLVER CONTROLS
1e-05,  ,  ,
*CONTROLS, PARAMETERS=FIELD, FIELD=DISPLACEMENT
 ,  ,  ,  ,  ,  ,  ,  ,
 ,  ,  ,
*CONTROLS, PARAMETERS=FIELD, FIELD=TEMPERATURE
5e-12, 1e-09,  ,  ,  , 1e-12,  ,  ,
 , 1e-12,  ,
*CONTROLS, PARAMETERS=CONSTRAINTS
 ,  ,  ,  ,  ,  ,  ,  ,
*CONTROLS, PARAMETERS=TIME INCREMENTATION
16, 8, 9, 16, 10, 16, 12, 100,  ,  ,  ,  ,  ,
 ,  ,  ,  ,  ,  ,  ,  ,
 ,  ,  ,  ,  ,  ,  ,  ,
 ,
*CONTROLS, PARAMETERS=LINE SEARCH
10,  ,  ,  ,  ,
**
** OUTPUT REQUESTS
**
*Restart, write, frequency=0
**
** FIELD OUTPUT: F-Output-1
**
*Output, field
*Node Output
COORD, NT, RF, U
*Element Output, directions=YES
COORD, LE, S, SDV, UVARM
*Output, history, frequency=0
*End Step
