 Abaqus/Standard 2023.HF4                  DATE 14-Feb-2025 TIME 19:53:47
 SUMMARY OF JOB INFORMATION:
 STEP  INC ATT SEVERE EQUIL TOTAL  TOTAL      STEP       INC OF       DOF    IF
               DISCON ITERS ITERS  TIME/    TIME/LPF    TIME/LPF    MONITOR RIKS
               ITERS               FREQ
   1     1   1     0     2     2  5.00e+06   5.00e+06   5.000e+06 
   1     2   1     0     2     2  1.00e+07   1.00e+07   5.000e+06 
   1     3   1     0     1     1  1.50e+07   1.50e+07   5.000e+06 
   1     4   1     0     1     1  2.50e+07   2.50e+07   1.000e+07 
   1     5   1     0     1     1  3.50e+07   3.50e+07   1.000e+07 
   1     6   1     0     1     1  4.50e+07   4.50e+07   1.000e+07 
   1     7   1     0     1     1  5.50e+07   5.50e+07   1.000e+07 
   1     8   1     0     1     1  6.50e+07   6.50e+07   1.000e+07 
   1     9   1     0     1     1  7.50e+07   7.50e+07   1.000e+07 
   1    10   1     0     1     1  8.50e+07   8.50e+07   1.000e+07 
   1    11   1     0     1     1  9.50e+07   9.50e+07   1.000e+07 
   1    12   1     0     1     1  1.05e+08   1.05e+08   1.000e+07 
   1    13   1     0     1     1  1.15e+08   1.15e+08   1.000e+07 
   1    14   1     0     1     1  1.25e+08   1.25e+08   1.000e+07 
   1    15   1     0     1     1  1.35e+08   1.35e+08   1.000e+07 
   1    16   1     0     1     1  1.45e+08   1.45e+08   1.000e+07 
   1    17   1     0     1     1  1.55e+08   1.55e+08   1.000e+07 
   1    18   1     0     1     1  1.65e+08   1.65e+08   1.000e+07 
   1    19   1     0     1     1  1.75e+08   1.75e+08   1.000e+07 
   1    20   1     0     1     1  1.85e+08   1.85e+08   1.000e+07 
   1    21   1     0     1     1  1.95e+08   1.95e+08   1.000e+07 
   1    22   1     0     1     1  2.05e+08   2.05e+08   1.000e+07 
   1    23   1     0     1     1  2.15e+08   2.15e+08   1.000e+07 
   1    24   1     0     1     1  2.25e+08   2.25e+08   1.000e+07 
   1    25   1     0     1     1  2.35e+08   2.35e+08   1.000e+07 
   1    26   1     0     1     1  2.45e+08   2.45e+08   1.000e+07 
   1    27   1     0     1     1  2.55e+08   2.55e+08   1.000e+07 
   1    28   1     0     1     1  2.65e+08   2.65e+08   1.000e+07 
   1    29   1     0     1     1  2.75e+08   2.75e+08   1.000e+07 
   1    30   1     0     1     1  2.85e+08   2.85e+08   1.000e+07 
   1    31   1     0     1     1  2.95e+08   2.95e+08   1.000e+07 
   1    32   1     0     1     1  3.05e+08   3.05e+08   1.000e+07 
   1    33   1     0     1     1  3.15e+08   3.15e+08   1.000e+07 
   1    34   1     0     1     1  3.25e+08   3.25e+08   1.000e+07 
   1    35   1     0     1     1  3.35e+08   3.35e+08   1.000e+07 
   1    36   1     0     1     1  3.45e+08   3.45e+08   1.000e+07 
   1    37   1     0     1     1  3.55e+08   3.55e+08   1.000e+07 
   1    38   1     0     1     1  3.65e+08   3.65e+08   1.000e+07 
   1    39   1     0     1     1  3.75e+08   3.75e+08   1.000e+07 
   1    40   1     0     1     1  3.85e+08   3.85e+08   1.000e+07 
