**************** UNITS: SI (m) ****************
**
** Length: m
** Time: s
** Force: N
** Stress: Pa
** Mass: kg = (N*s^2)/m
** Density: kg/m^3
**
************************************************
*Heading
** Job name: FNR3_full Model name: FNR3_full
** Generated by: Abaqus/CAE 2023.HF4
*Preprint, echo=NO, model=NO, history=NO, contact=NO
**
** PARTS
**
*Part, name=PSR3
********************************************
*INCLUDE, INPUT=nodes
********************************************
***********************************************
*INCLUDE, INPUT=elements
***********************************************
*Nset, nset=whole_part, generate
1,  96142,      1
*Elset, elset=whole_part, generate
1,  88280,      1
** Section: Section-1
*Solid Section, elset=whole_part, material=Material-1
,
*End Part
**
**
** ASSEMBLY
**
*Assembly, name=Assembly
**
*Instance, name=PSR3-1, part=PSR3
*End Instance
**
*Elset, elset=ALLE, instance=PSR3-1, generate
1,  88280,      1
*Nset, nset=ALLN, instance=PSR3-1, generate
1,  96142,      1
*Nset, nset=all_surf, instance=PSR3-1
1,     3,     5,    18,    25,    32,    34,    35,    36,    38,    39,    40,    46,    53,    60,    69
70,    72,    81,    95,    99,   101,   102,   103,   104,   106,   107,   108,   109,   110,   115,   116
117,   118,   119,   120,   121,   122,   123,   124,   125,   126,   127,   128,   129,   130,   131,   132
133,   134,   135,   136,   137,   145,   149,   150,   151,   152,   154,   155,   167,   169,   170,   171
172,   173,   174,   175,   176,   177,   178,   179,   180,   181,   182,   183,   184,   185,   186,   187
188,   189,   190,   191,   192,   193,   194,   195,   196,   197,   198,   199,   200,   201,   202,   203
204,   205,   206,   207,   208,   209,   210,   211,   212,   213,   214,   215,   216,   217,   218,   219
220,   221,   222,   223,   224,   225,   226,   227,   228,   229,   230,   231,   232,   233,   234,   235
236,   237,   238,   239,   240,   241,   242,   243,   244,   245,   246,   247,   248,   249,   250,   251
252,   253,   254,   255,   256,   257,   258,   259,   260,   261,   262,   263,   264,   265,   266,   267
268,   269,   270,   271,   272,   273,   274,   275,   276,   277,   278,   279,   280,   281,   282,   283
284,   285,   286,   287,   288,   289,   290,   291,   292,   293,   294,   296,   297,   298,   299,   300
301,   302,   303,   304,   305,   306,   307,   308,   309,   310,   311,   312,   313,   314,   315,   316
317,   318,   319,   320,   321,   322,   323,   324,   325,   326,   327,   328,   329,   331,   332,   333
334,   335,   338,   341,   342,   343,   344,   345,   346,   347,   348,   349,   350,   351,   352,   353
354,   355,   356,   357,   359,   360,   361,   362,   364,   367,   370,   374,   375,   376,   377,   378
382,   388,   393,   394,   395,   396,   397,   398,   399,   400,   401,   402,   404,   405,   409,   410
411,   412,   415,   418,   419,   420,   421,   422,   423,   424,   425,   426,   428,   429,   430,   431
433,   434,   435,   436,   438,   439,   440,   441,   449,   461,   466,   471,   477,   482,   483,   490
491,   492,   493,   495,   496,   497,   498,   499,   500,   501,   502,   503,   504,   505,   508,   509
** ... 914 like lines cut
*Elset, elset=all_surf, instance=PSR3-1
1,     2,     3,     4,     5,     6,     7,     8,     9,    10,    11,    12,    13,    14,    15,    16
17,    18,    19,    20,    21,    22,    23,    24,    25,    26,    27,    28,    29,    30,    31,    32
33,    34,    35,    36,    37,    38,    39,    40,    41,    42,    43,    44,    45,    46,    47,    48
49,    56,    57,    64,    65,    72,    73,    80,    81,    88,    89,    96,    97,   104,   105,   112
113,   120,   121,   128,   129,   136,   137,   144,   145,   152,   153,   160,   161,   168,   169,   176
177,   184,   185,   192,   193,   200,   201,   208,   209,   216,   217,   224,   225,   232,   233,   240
241,   248,   249,   256,   257,   264,   265,   272,   273,   280,   281,   288,   289,   296,   297,   304
305,   312,   313,   320,   321,   328,   329,   336,   337,   344,   345,   352,   353,   360,   361,   368
369,   376,   377,   384,   385,   392,   393,   400,   401,   408,   409,   416,   417,   424,   425,   432
433,   440,   441,   448,   449,   456,   457,   464,   465,   472,   473,   480,   481,   488,   489,   496
497,   504,   505,   512,   513,   520,   521,   528,   529,   536,   537,   544,   545,   552,   553,   560
561,   568,   569,   576,   577,   584,   585,   592,   593,   600,   601,   608,   609,   616,   617,   624
625,   632,   633,   640,   641,   648,   649,   656,   657,   664,   665,   672,   673,   680,   681,   688
689,   696,   697,   704,   705,   712,   713,   720,   721,   728,   729,   736,   737,   744,   745,   752
753,   760,   761,   768,   769,   776,   777,   784,   785,   792,   793,   800,   801,   808,   809,   816
817,   824,   825,   832,   833,   840,   841,   848,   849,   856,   857,   864,   865,   872,   873,   880
881,   888,   889,   896,   897,   904,   905,   912,   913,   920,   921,   928,   929,   936,   937,   944
945,   952,   953,   960,   961,   968,   969,   976,   977,   984,   985,   992,   993,  1000,  1001,  1008
1009,  1016,  1017,  1024,  1025,  1032,  1033,  1040,  1041,  1048,  1049,  1056,  1057,  1064,  1065,  1072
1073,  1080,  1081,  1088,  1089,  1096,  1097,  1104,  1105,  1112,  1113,  1120,  1121,  1128,  1129,  1136
** ... 891 like lines cut
*Nset, nset=bottom_surf, instance=PSR3-1
4,   13,   14,   15,   16,   17,   20,   21,   22,   23,   24,   27,   28,   29,   30,   31
38,   46,   48,   49,   50,   51,   52,   55,   56,   57,   58,   59,   62,   63,   64,   65
66,   83,   84,   85,   86,   87,   90,   91,   92,   93,   94,   97,   98,   99,  141,  142
143,  144,  147,  153,  182,  183,  184,  185,  186,  190,  191,  192,  193,  194,  195,  196
197,  198,  199,  200,  201,  202,  203,  204,  205,  206,  253,  254,  255,  256,  257,  258
259,  260,  261,  262,  263,  264,  265,  266,  267,  268,  269,  280,  281,  282,  283,  284
292,  293,  330,  336,  343,  344,  345,  346,  347,  353,  354,  355,  356,  357,  363,  366
369,  372,  373,  379,  382,  389,  390,  391,  393,  394,  407,  412,  414,  417,  432,  442
443,  446,  447,  448,  451,  452,  453,  454,  455,  456,  457,  458,  459,  460,  463,  464
465,  468,  469,  470,  473,  474,  475,  476,  478,  492,  498,  499,  504,  507,  511,  516
519,  522,  524,  527,  528,  529,  532,  536,  540,  542,  544,  545,  561,  564,  565,  566
568,  569,  572,  573,  574,  575,  576,  577,  580,  581,  584,  588,  589,  592,  593,  595
608,  614,  615,  616,  617,  618,  619,  620,  621,  627,  628,  635,  637,  638,  639,  640
643,  645,  651,  652,  653,  654,  655,  656,  661,  667,  668,  669,  672,  676,  677,  682
683,  686,  708,  709,  712,  713,  714,  717,  718,  719,  720,  721,  722,  725,  726,  727
728,  730,  731,  732,  733,  734,  739,  740,  742,  743,  748,  755,  762,  764,  769,  774
775,  777,  779,  780,  781,  783,  787,  788,  790,  791,  793,  797,  798,  803,  804,  827
828,  830,  831,  832,  834,  835,  838,  839,  840,  841,  842,  867,  879,  907,  914,  922
964, 1054, 1056, 1057, 1058, 1059, 1060, 1063, 1064, 1065, 1066, 1067, 1070, 1071, 1072, 1073
1074, 1091, 1092, 1093, 1094, 1095, 1098, 1099, 1100, 1101, 1102, 1105, 1106, 1107, 1108, 1109
** ... 4 like lines cut
*Elset, elset=bottom_surf, instance=PSR3-1
41,   42,   43,   44,   45,   46,   47,   48,   89,   90,   91,   92,   93,   94,   95,   96
137,  138,  139,  140,  141,  142,  143,  144,  185,  186,  187,  188,  189,  190,  191,  192
233,  234,  235,  236,  237,  238,  239,  240,  281,  282,  283,  284,  285,  286,  287,  288
329,  330,  331,  332,  333,  334,  335,  336,  377,  378,  379,  380,  381,  382,  383,  384
425,  426,  427,  428,  429,  430,  431,  432,  473,  474,  475,  476,  477,  478,  479,  480
521,  522,  523,  524,  525,  526,  527,  528,  569,  570,  571,  572,  573,  574,  575,  576
617,  618,  619,  620,  621,  622,  623,  624,  665,  666,  667,  668,  669,  670,  671,  672
713,  714,  715,  716,  717,  718,  719,  720,  761,  762,  763,  764,  765,  766,  767,  768
809,  810,  811,  812,  813,  814,  815,  816,  857,  858,  859,  860,  861,  862,  863,  864
905,  906,  907,  908,  909,  910,  911,  912,  953,  954,  955,  956,  957,  958,  959,  960
1001, 1002, 1003, 1004, 1005, 1006, 1007, 1008, 1049, 1050, 1051, 1052, 1053, 1054, 1055, 1056
1097, 1098, 1099, 1100, 1101, 1102, 1103, 1104, 1145, 1146, 1147, 1148, 1149, 1150, 1151, 1152
1193, 1194, 1195, 1196, 1197, 1198, 1199, 1200, 1241, 1242, 1243, 1244, 1245, 1246, 1247, 1248
1289, 1290, 1291, 1292, 1293, 1294, 1295, 1296, 1337, 1338, 1339, 1340, 1341, 1342, 1343, 1344
1385, 1386, 1387, 1388, 1389, 1390, 1391, 1392, 1433, 1434, 1435, 1436, 1437, 1438, 1439, 1440
1481, 1482, 1483, 1484, 1485, 1486, 1487, 1488, 1529, 1530, 1531, 1532, 1533, 1534, 1535, 1536
1577, 1578, 1579, 1580, 1581, 1582, 1583, 1584, 1625, 1626, 1627, 1628, 1629, 1630, 1631, 1632
1673, 1674, 1675, 1676, 1677, 1678, 1679, 1680, 1721, 1722, 1723, 1724, 1725, 1726, 1727, 1728
1769, 1770, 1771, 1772, 1773, 1774, 1775, 1776, 1817, 1818, 1819, 1820, 1821, 1822, 1823, 1824
1865, 1866, 1867, 1868, 1869, 1870, 1871, 1872, 1913, 1914, 1915, 1916, 1917, 1918, 1919, 1920
*Nset, nset=top_surf, instance=PSR3-1
2805, 2806, 2807, 2808, 2809, 2810, 2811, 2812, 2813, 2814, 2815, 2816, 2817, 2818, 2819, 2820
2821, 2822, 2823, 2824, 2825, 2826, 2827, 2828, 2829, 2830, 2831, 2832, 2833, 2834, 2835, 2836
2837, 2838, 2839, 2840, 2841, 2842, 2843, 2844, 2845, 2846, 2847, 2848, 2849, 2850, 2851, 2852
2853, 2854, 2855, 2856, 2857, 2858, 2859, 2860, 2861, 2862, 2863, 2864, 2865, 2866, 2867, 2868
2869, 2870, 2871, 2872, 2873, 2874, 2875, 2876, 2877, 2878, 2879, 2880, 2881, 2882, 2883, 2884
2885, 2886, 2887, 2888, 2889, 2890, 2891, 2892, 2893, 2894, 2895, 2896, 2897, 2898, 2899, 2900
2901, 2902, 2903, 2904, 2905, 2906, 2907, 2908, 2909, 2910, 2911, 2912, 2913, 2914, 2915, 2916
2917, 2918, 2919, 2920, 2921, 2922, 2923, 2924, 2925, 2926, 2927, 2928, 2929, 2930, 2931, 2932
2933, 2934, 2935, 2936, 2937, 2938, 2939, 2940, 2941, 2942, 2943, 2944, 2945, 2946, 2947, 2948
2949, 2950, 2951, 2952, 2953, 2954, 2955, 2956, 2957, 2958, 2959, 2960, 2961, 2962, 2963, 2964
2965, 2966, 2967, 2968, 2969, 2970, 2971, 2972, 2973, 2974, 2975, 2976, 2977, 2978, 2979, 2980
2981, 2982, 2983, 2984, 2985, 2986, 2987, 2988, 2989, 2990, 2991, 2992, 2993, 2994, 2995, 2996
2997, 2998, 2999, 3000, 3001, 3002, 3003, 3004, 3005, 3006, 3007, 3008, 3009, 3010, 3011, 3012
3013, 3014, 3015, 3016, 3017, 3018, 3019, 3020, 3021, 3022, 3023, 3024, 3025, 3026, 3027, 3028
3029, 3030, 3031, 3032, 3033, 3034, 3035, 3036, 3037, 3038, 3039, 3040, 3041, 3042, 3043, 3044
3045, 3046, 3047, 3048, 3049, 3050, 3051, 3052, 3053, 3054, 3055, 3056, 3057, 3058, 3059, 3060
3061, 3062, 3063, 3064, 3065, 3066, 3067, 3068, 3069, 3070, 3071, 3072, 3073, 3074, 3075, 3076
3077, 3471, 3472, 3473, 3474, 3479, 3481, 3487, 3488, 3489, 3490, 3491, 3493, 3498, 3499, 3500
3506, 3510, 3512, 3513, 3518, 3519, 3520, 3521, 3522, 3523, 3524, 3525, 3526, 3527, 3528, 3529
3530, 3531, 3536, 3537, 3538, 3539, 3541, 3546, 3550, 3553, 3554, 3555, 3556, 3557, 3559, 3576
** ... 4 like lines cut
*Elset, elset=top_surf, instance=PSR3-1
1961, 1962, 1963, 1964, 1965, 1966, 1967, 1968, 2009, 2010, 2011, 2012, 2013, 2014, 2015, 2016
2057, 2058, 2059, 2060, 2061, 2062, 2063, 2064, 2105, 2106, 2107, 2108, 2109, 2110, 2111, 2112
2153, 2154, 2155, 2156, 2157, 2158, 2159, 2160, 2201, 2202, 2203, 2204, 2205, 2206, 2207, 2208
2249, 2250, 2251, 2252, 2253, 2254, 2255, 2256, 2297, 2298, 2299, 2300, 2301, 2302, 2303, 2304
2345, 2346, 2347, 2348, 2349, 2350, 2351, 2352, 2393, 2394, 2395, 2396, 2397, 2398, 2399, 2400
2441, 2442, 2443, 2444, 2445, 2446, 2447, 2448, 2489, 2490, 2491, 2492, 2493, 2494, 2495, 2496
2537, 2538, 2539, 2540, 2541, 2542, 2543, 2544, 2585, 2586, 2587, 2588, 2589, 2590, 2591, 2592
2633, 2634, 2635, 2636, 2637, 2638, 2639, 2640, 2681, 2682, 2683, 2684, 2685, 2686, 2687, 2688
2729, 2730, 2731, 2732, 2733, 2734, 2735, 2736, 2777, 2778, 2779, 2780, 2781, 2782, 2783, 2784
2825, 2826, 2827, 2828, 2829, 2830, 2831, 2832, 2873, 2874, 2875, 2876, 2877, 2878, 2879, 2880
2921, 2922, 2923, 2924, 2925, 2926, 2927, 2928, 2969, 2970, 2971, 2972, 2973, 2974, 2975, 2976
3017, 3018, 3019, 3020, 3021, 3022, 3023, 3024, 3065, 3066, 3067, 3068, 3069, 3070, 3071, 3072
3113, 3114, 3115, 3116, 3117, 3118, 3119, 3120, 3161, 3162, 3163, 3164, 3165, 3166, 3167, 3168
3209, 3210, 3211, 3212, 3213, 3214, 3215, 3216, 3257, 3258, 3259, 3260, 3261, 3262, 3263, 3264
3305, 3306, 3307, 3308, 3309, 3310, 3311, 3312, 3353, 3354, 3355, 3356, 3357, 3358, 3359, 3360
3401, 3402, 3403, 3404, 3405, 3406, 3407, 3408, 3449, 3450, 3451, 3452, 3453, 3454, 3455, 3456
3497, 3498, 3499, 3500, 3501, 3502, 3503, 3504, 3545, 3546, 3547, 3548, 3549, 3550, 3551, 3552
3593, 3594, 3595, 3596, 3597, 3598, 3599, 3600, 3641, 3642, 3643, 3644, 3645, 3646, 3647, 3648
3689, 3690, 3691, 3692, 3693, 3694, 3695, 3696, 3737, 3738, 3739, 3740, 3741, 3742, 3743, 3744
3785, 3786, 3787, 3788, 3789, 3790, 3791, 3792, 3833, 3834, 3835, 3836, 3837, 3838, 3839, 3840
*End Assembly
*Amplitude, name=constant
0.,              1.,            100.,              1.
*Amplitude, name=ramp
0.,              0.,            100.,              1.
**
** MATERIALS
**
*Material, name=Material-1
*Density
1.4537037037037037e-11,
*Depvar       
  38,      
1, AR1_EBARP, AR1_EBARP
2, AR2_YFLAG, AR2_YFLAG
3, AR3_CL, AR3_CL
4, AR4_CT, AR4_CT
5, AR5_GRADPX, AR5_GRADPX
6, AR6_GRADPY, AR6_GRADPY
7, AR7_CTOTAL, AR7_CTOTAL
8, AR8_CL0, AR8_CL0
9, AR9_DD, AR9_DD
10, AR10_AIDD, AR10_AIDD
11, AR11_DFLAG, AR11_DFLAG
12, AR12_AIF, AR12_AIF
13, AR13_FFLAG, AR13_FFLAG
14, AR14_SYI, AR14_SYI
15, AR15_ETA, AR15_ETA
16, AR16_THETADEG, AR16_THETADEG
17, AR17_QETA, AR17_QETA
18, AR18_QTHETA, AR18_QTHETA
19, AR19_DCR, AR19_DCR
20, AR20_PDD, AR20_PDD
21, AR21_U, AR21_U
22, AR22_YIELD, AR22_YIELD
23, AR23_RHO, AR23_RHO
24, AR24_THETAL, AR24_THETAL
25, AR25_THETAT, AR25_THETAT
26, AR26_DDH, AR26_DDH
27, AR27_AMU, AR27_AMU
28, AR28_SYD, AR28_SYD
29, AR29_DCOMB, AR29_DCOMB
30, AR30_SCFCN, AR30_SCFCN
31, AR31_DIFFS, AR31_DIFFS
32, AR32_FLAGCL, AR32_FLAGCL
33, AR33_FLAGD, AR33_FLAGD
34, AR34_CTOR, AR34_CTOR
35, AR35_EBARDOT, AR35_EBARDOT
36, AR36_HEFF, AR36_HEFF
37, AR37_SPRMAX, AR37_SPRMAX
38, AR38_DSTAR, AR38_DSTAR
*User Material, constants=32, type=THERMAL
**
** =============================
**
** HYDROGEN DIFFUSION PROPERTIES
**
** <AE>, <POISSON>, <SIG0>, <EXPO>, <AE0>, <C0>, <D>, <VH>
407.4074074074074, 0.3, 1, 10, 0.0024545454545454545, 0, 0.0005, 0.43298373905513327
** <KT>, <ALPHA>, <NL>, <BETA>, <LAMBDA>, <EPCL>, <SC>, <C1>
2.8e-10, 1, 40600464.55377882, 1, 0.281, 0.03, 7.5, 0.4
** <C2>, <C3>, <C4>, <ETAC>, <GF>, <D1>, <D2>, <D3>
2.266, 0.1, 1.131, -0.33, 6.65, 0.37, 0.5449, 0.85
** <D4>, <RHO0>, <ALFREQ>, <SFD>, <P0>, <AMU0>, <EBARDOT0>, none
0.3926, 1.4537037037037037e-11, 1184490, 1, 0, 0, 0.09999999999999999, 0.0
**
*******************************************************
*User Material, constants=32, type=MECHANICAL
**
** =====================
**
** MECHANICAL PROPERTIES
**
** <AE>, <POISSON>, <SIG0>, <EXPO>, <AE0>, <C0>, <D>, <VH>
407.4074074074074, 0.3, 1, 10, 0.0024545454545454545, 2083720000000000000000, 0.0005, 0.43298373905513327
** <KT>, <ALPHA>, <NL>, <BETA>, <LAMBDA>, <EPCL>, <SC>, <C1>
2.8e-10, 1, 40600464.55377882, 1, 0.281, 0.03, 7.5, 0.4
** <C2>, <C3>, <C4>, <ETAC>, <GF>, <D1>, <D2>, <D3>
2.266, 0.1, 1.131, -0.33, 6.65, 0.37, 0.5449, 0.85
** <D4>, <RHO0>, <ALFREQ>, <SFD>, <P0>, <AMU0>, <EBARDOT0>, none
0.3926, 1.4537037037037037e-11, 1184490, 1, 0, 0, 0.09999999999999999, 0.0
**
**
******** INITIAL CONDITIONS ********
**
*Initial Conditions, Type=Solution
ALLE, 0.0, 0.0, 0.001, 0.0, 0.0, 0.0, 0.0
0.0, 0.0, 0.0, 0.0, 0.0, 1.0, 0.0, 0.0
0.0, 0.0, 0.0, 0.0, 0.0, 0.0, 0.0, 1.4537037037037037e-11
0.0, 0.0, 0.0, 0.0, 0.0, 0.0, 7.5, 0.0
0.0, 0.0, 0.09999999999999999, 0.0, 0.0, 0.0
******************************
**
** BOUNDARY CONDITIONS
**
** Name: bottom_fix Type: Symmetry/Antisymmetry/Encastre
*Boundary
bottom_surf, PINNED
**
** PREDEFINED FIELDS
**
** Name: predefined_field_hydrogen   Type: Temperature
*Initial Conditions, type=TEMPERATURE
all_surf, 0.
** ----------------------------------------------------------------
**
** STEP: step1_insitu_gas_charging
**
*Step, name=step1_insitu_gas_charging, nlgeom=YES
*Coupled Temperature-displacement, creep=none, deltmx=100.
100., 100., 0.001, 100.
**
** BOUNDARY CONDITIONS
**
** Name: hydrogen_charging Type: Temperature
*Boundary, amplitude=constant
all_surf, 11, 11, 0.11
** Name: top_displacement Type: Displacement/Rotation
*Boundary, amplitude=ramp
top_surf, 2, 2, 0.001
**
** PREDEFINED FIELDS
**
** Name: predefined_field_ufield   Type: Field
*Field, variable=1, user
ALLN
*CONTROLS, PARAMETERS=FIELD, FIELD=TEMPERATURE
 , , 1.184E-07
**
** OUTPUT REQUESTS
**
*Restart, write, frequency=0
**
** FIELD OUTPUT: F-Output-1
**
*Output, field, number interval=100
*Node Output
NT, RF, U
*Element Output, directions=YES
HFL, LE, S, SDV, STATUS
*Output, history, frequency=0
*End Step
