1

   Abaqus 2023.HF4                                  Date 06-Feb-2025   Time 19:56:28
   For use by AALTO UNIVERSITY under license from Dassault Systemes or its subsidiary.

  AXISYMMETRIC, 60x300 --- FINITE STRAINS, ABAQUS/IMPLICIT                       
                                                                                 
 STEP    1     INCREMENT     1     STEP TIME    0.00    


                        S T E P       1     C O U P L E D - T E M P E R A T U R E - D I S P L A C E M E N T   A N A L Y S I S


                                                                                          

     AUTOMATIC TIME CONTROL WITH -
          A SUGGESTED INITIAL TIME INCREMENT OF                1.000E-08
          AND A TOTAL TIME PERIOD OF                           2.000E-02
          THE MINIMUM TIME INCREMENT ALLOWED IS                1.000E-11
          THE MAXIMUM TIME INCREMENT ALLOWED IS                8.333E-06

          CREEP AND SWELLING EFFECTS ARE OMITTED IN THIS STEP

     THE SIZE OF THE TIME INCREMENT IS CONTROLLED BY -
          THE TEMPERATURE CHANGE PER INCREMENT NOT EXCEEDING           0.250    
          THE RATE DEPENDENCY WILL BE CONSIDERED IN THIS STEP

          CREEP AND SWELLING EFFECTS WILL BE IGNORED.

 CONVERGENCE TOLERANCE PARAMETERS FOR FORCE    
     CRITERION FOR RESIDUAL FORCE     FOR A NONLINEAR PROBLEM          5.000E-03
     CRITERION FOR DISP.    CORRECTION IN A NONLINEAR PROBLEM          1.000E-02
     INITIAL VALUE OF TIME AVERAGE FORCE                               1.000E-02
     AVERAGE FORCE     IS TIME AVERAGE FORCE    
     ALTERNATE CRIT. FOR RESIDUAL FORCE     FOR A NONLINEAR PROBLEM    2.000E-02
     CRITERION FOR ZERO FORCE     RELATIVE TO TIME AVRG. FORCE         1.000E-05
     CRITERION FOR RESIDUAL FORCE     WHEN THERE IS ZERO FLUX          1.000E-05
     CRITERION FOR DISP.    CORRECTION WHEN THERE IS ZERO FLUX         1.000E-03
     CRITERION FOR RESIDUAL FORCE     FOR A LINEAR INCREMENT           1.000E-08
     FIELD CONVERSION RATIO                                             1.00    
     CRITERION FOR ZERO FORCE     REL. TO TIME AVRG. MAX. FORCE        1.000E-05
     CRITERION FOR ZERO DISP.    RELATIVE TO CHARACTERISTIC LENGTH     1.000E-08

 CONVERGENCE TOLERANCE PARAMETERS FOR HEAT FLUX
     CRITERION FOR RESIDUAL HEAT FLUX FOR A NONLINEAR PROBLEM          5.000E-03
     CRITERION FOR TEMP.    CORRECTION IN A NONLINEAR PROBLEM          1.000E-02
     INITIAL VALUE OF TIME AVERAGE HEAT FLUX                           1.000E-02
     AVERAGE HEAT FLUX IS TIME AVERAGE HEAT FLUX
     ALTERNATE CRIT. FOR RESIDUAL HEAT FLUX FOR A NONLINEAR PROBLEM    2.000E-02
     CRITERION FOR ZERO HEAT FLUX RELATIVE TO TIME AVRG. HEAT FLUX     1.000E-05
     CRITERION FOR RESIDUAL HEAT FLUX WHEN THERE IS ZERO FLUX          1.000E-05
     CRITERION FOR TEMP.    CORRECTION WHEN THERE IS ZERO FLUX         1.000E-03
     CRITERION FOR RESIDUAL HEAT FLUX FOR A LINEAR INCREMENT           1.000E-08
     FIELD CONVERSION RATIO                                             1.00    
     CRITERION FOR ZERO HEAT FLUX REL. TO TIME AVRG. MAX. HEAT FLUX    1.000E-05

     VOLUMETRIC STRAIN COMPATIBILITY TOLERANCE FOR HYBRID SOLIDS       1.000E-05
     AXIAL STRAIN COMPATIBILITY TOLERANCE FOR HYBRID BEAMS             1.000E-05
     TRANS. SHEAR STRAIN COMPATIBILITY TOLERANCE FOR HYBRID BEAMS      1.000E-05
     SOFT CONTACT CONSTRAINT COMPATIBILITY TOLERANCE FOR P>P0          5.000E-03
     SOFT CONTACT CONSTRAINT COMPATIBILITY TOLERANCE FOR P=0.0         0.100    
     CONTACT FORCE ERROR TOLERANCE FOR CONVERT SDI=YES                 1.00    
     DISPLACEMENT COMPATIBILITY TOLERANCE FOR DCOUP ELEMENTS           1.000E-05
     ROTATION COMPATIBILITY TOLERANCE FOR DCOUP ELEMENTS               1.000E-05

 EQUILIBRIUM WILL BE CHECKED FOR SEVERE DISCONTINUITY ITERATIONS

 TIME INCREMENTATION CONTROL PARAMETERS:
     FIRST EQUILIBRIUM ITERATION FOR CONSECUTIVE DIVERGENCE CHECK              4
     EQUILIBRIUM ITERATION AT WHICH LOG. CONVERGENCE RATE CHECK BEGINS         8
     EQUILIBRIUM ITERATION AFTER WHICH ALTERNATE RESIDUAL IS USED              9
     MAXIMUM EQUILIBRIUM ITERATIONS ALLOWED                                   16
     EQUILIBRIUM ITERATION COUNT FOR CUT-BACK IN NEXT INCREMENT               10
     MAXIMUM EQUILIB. ITERS IN TWO INCREMENTS FOR TIME INCREMENT INCREASE      4
     MAXIMUM ITERATIONS FOR SEVERE DISCONTINUITIES                            50
     MAXIMUM ATTEMPTS ALLOWED IN AN INCREMENT                                  5
     MAXIMUM DISCON. ITERS IN TWO INCREMENTS FOR TIME INCREMENT INCREASE      50
     MAXIMUM CONTACT AUGMENTATIONS FOR *SURFACE BEHAVIOR,AUGMENTED LAGRANGE   50
     CONSECUTIVE INCS MEETING TIME INTEG. TOL. FOR TIME INC. INCREASE          3
     CUT-BACK FACTOR AFTER DIVERGENCE                                 0.2500    
     CUT-BACK FACTOR FOR TOO SLOW CONVERGENCE                         0.5000    
     CUT-BACK FACTOR AFTER TOO MANY EQUILIBRIUM ITERATIONS            0.7500    
     CUT-BACK FACTOR AFTER TOO MANY SEVERE DISCONTINUITY ITERATIONS   0.2500    
     CUT-BACK FACTOR AFTER PROBLEMS IN ELEMENT ASSEMBLY               0.2500    
     INCREASE FACTOR AFTER TWO INCREMENTS THAT CONVERGE QUICKLY        1.500    
     MAX. TIME INCREMENT INCREASE FACTOR ALLOWED                       1.500    
     MAX. TIME INCREMENT INCREASE FACTOR ALLOWED (DYNAMICS)            1.250    
     MAX. TIME INCREMENT INCREASE FACTOR ALLOWED (DIFFUSION)           2.000    
     MINIMUM TIME INCREMENT RATIO FOR EXTRAPOLATION TO OCCUR          0.1000    
     CUT-BACK FACTOR WHEN TIME INTEGRATION ACCURACY TOL. EXCEEDED     0.8500    
     MAX. RATIO OF TIME INTEG. MEASURE TO TOL. FOR TIME INC. INCREASE 0.7500    
     INCREASE FACTOR FOR TIME INCREMENT WHEN POSSIBLE                 0.8000    
     MIN. TIME INC. INCREASE FACTOR IN LINEAR TRANSIENT PROBLEMS      0.9500    
     MAX. RATIO OF TIME INCREMENT TO STABILITY LIMIT                   1.000    
     FRACTION OF STABILITY LIMIT FOR NEW TIME INCREMENT               0.9500    
     TIME INCREMENT INCREASE FACTOR BEFORE A TIME POINT                1.000    
     GLOBAL STABILIZATION CONTROL IS NOT USED

          PRINT OF INCREMENT NUMBER, TIME, ETC., EVERY    1  INCREMENTS

     RESTART FILE WILL BE WRITTEN EVERY   100  INCREMENTS

     THE MAXIMUM NUMBER OF INCREMENTS IN THIS STEP IS                  100000

          LARGE DISPLACEMENT THEORY WILL BE USED

          UNSYMMETRIC MATRIX STORAGE AND SOLUTION WILL BE USED

     LINEAR EXTRAPOLATION WILL BE USED

     CHARACTERISTIC ELEMENT LENGTH     4.499E-05

     DETAILS REGARDING ACTUAL SOLUTION WAVEFRONT REQUESTED

     DETAILED OUTPUT OF DIAGNOSTICS TO DATABASE REQUESTED

     PRINT OF INCREMENT NUMBER, TIME, ETC., TO THE MESSAGE FILE EVERY     1  INCREMENTS

     COLLECTING MODEL CONSTRAINT INFORMATION FOR OVERCONSTRAINT CHECKS

     COLLECTING STEP CONSTRAINT INFORMATION FOR OVERCONSTRAINT CHECKS


  INCREMENT     1 STARTS. ATTEMPT NUMBER  1, TIME INCREMENT  1.000E-08
 
	UNSYMMETRIC NEW DIRECT SPARSE SOLVER RUNNING ON
 	1 HOST x 1 MPI RANK PER HOST x 1 THREAD PER RANK
        NUMBER OF EQUATIONS:  55023
        NUMBER OF RHS:        1
        NUMBER OF FLOPS:      1.858e+09
        SOLVER ELAPSED TIME:  142ms

               CONVERGENCE CHECKS FOR EQUILIBRIUM ITERATION     1


 AVERAGE FORCE                      5.963E-09   TIME AVG. FORCE       1.000E-02
 LARGEST SCALED RESIDUAL FORCE     -1.243E-12   AT NODE      18056   DOF  1
  CORRESPONDING RESIDUAL FORCE     -1.243E-12
 LARGEST INCREMENT OF DISP.        -1.419E-07   AT NODE      18239   DOF  1
 LARGEST CORRECTION TO DISP.       -1.419E-07   AT NODE      18239   DOF  1
          THERE IS ZERO FORCE     EVERYWHERE
 

 ***WARNING: THERE IS ZERO FORCE EVERYWHERE IN THE MODEL BASED ON THE DEFAULT 
             CRITERION. PLEASE CHECK THE VALUE OF THE AVERAGE FORCE DURING THE 
             CURRENT ITERATION TO VERIFY THAT THE FORCE IS SMALL ENOUGH TO BE 
             TREATED AS ZERO. IF NOT, PLEASE USE THE SOLUTION CONTROLS TO RESET 
             THE CRITERION FOR ZERO FORCE.

 AVERAGE HEAT FLUX                  2.871E-07   TIME AVG. HEAT FLUX   2.871E-07
 LARGEST RESIDUAL HEAT FLUX         8.113E-09   AT NODE      18299   DOF 11
 LARGEST INCREMENT OF TEMP.        -9.900E-04   AT NODE         61   DOF 11
 LARGEST CORRECTION TO TEMP.       -9.900E-04   AT NODE         61   DOF 11
          HEAT FLUX EQUILIBRIUM NOT ACHIEVED WITHIN TOLERANCE.
 
	UNSYMMETRIC NEW DIRECT SPARSE SOLVER RUNNING ON
 	1 HOST x 1 MPI RANK PER HOST x 1 THREAD PER RANK
        NUMBER OF EQUATIONS:  55023
        NUMBER OF RHS:        1
        NUMBER OF FLOPS:      1.858e+09
        SOLVER ELAPSED TIME:  142ms

               CONVERGENCE CHECKS FOR EQUILIBRIUM ITERATION     2


 AVERAGE FORCE                      5.963E-09   TIME AVG. FORCE       1.000E-02
 LARGEST SCALED RESIDUAL FORCE     -1.071E-14   AT NODE      13475   DOF  1
  CORRESPONDING RESIDUAL FORCE     -1.071E-14
 LARGEST INCREMENT OF DISP.        -1.419E-07   AT NODE      18239   DOF  1
 LARGEST CORRECTION TO DISP.       -3.361E-12   AT NODE      18056   DOF  1
          THERE IS ZERO FORCE     EVERYWHERE
 

 ***WARNING: THERE IS ZERO FORCE EVERYWHERE IN THE MODEL BASED ON THE DEFAULT 
             CRITERION. PLEASE CHECK THE VALUE OF THE AVERAGE FORCE DURING THE 
             CURRENT ITERATION TO VERIFY THAT THE FORCE IS SMALL ENOUGH TO BE 
             TREATED AS ZERO. IF NOT, PLEASE USE THE SOLUTION CONTROLS TO RESET 
             THE CRITERION FOR ZERO FORCE.

 AVERAGE HEAT FLUX                  2.871E-07   TIME AVG. HEAT FLUX   2.871E-07
 LARGEST RESIDUAL HEAT FLUX         3.671E-13   AT NODE      18238   DOF 11
 LARGEST INCREMENT OF TEMP.        -9.900E-04   AT NODE         61   DOF 11
 LARGEST CORRECTION TO TEMP.        6.008E-07   AT NODE      18238   DOF 11
          THE HEAT FLUX EQUILIBRIUM EQUATIONS HAVE CONVERGED

 MAXIMUM NON-PRESCRIBED INCREMENT IN TEMPERATURE IS   2.685E-04

 ITERATION SUMMARY FOR THE INCREMENT:   2 TOTAL ITERATIONS, OF WHICH
   0 ARE SEVERE DISCONTINUITY ITERATIONS AND  2 ARE EQUILIBRIUM ITERATIONS.

 TIME INCREMENT COMPLETED  1.000E-08,  FRACTION OF STEP COMPLETED  5.000E-07
 STEP TIME COMPLETED       1.000E-08,  TOTAL TIME COMPLETED        1.000E-08


  INCREMENT     2 STARTS. ATTEMPT NUMBER  1, TIME INCREMENT  1.000E-08
 
	UNSYMMETRIC NEW DIRECT SPARSE SOLVER RUNNING ON
 	1 HOST x 1 MPI RANK PER HOST x 1 THREAD PER RANK
        NUMBER OF EQUATIONS:  55023
        NUMBER OF RHS:        1
        NUMBER OF FLOPS:      1.858e+09
        SOLVER ELAPSED TIME:  149ms

               CONVERGENCE CHECKS FOR EQUILIBRIUM ITERATION     1


 AVERAGE FORCE                      5.962E-09   TIME AVG. FORCE       1.000E-02
 LARGEST SCALED RESIDUAL FORCE     -3.720E-12   AT NODE      18056   DOF  1
  CORRESPONDING RESIDUAL FORCE     -3.720E-12
 LARGEST INCREMENT OF DISP.         1.200E-10   AT NODE      18301   DOF  2
 LARGEST CORRECTION TO DISP.        1.419E-07   AT NODE      18239   DOF  1
          THERE IS ZERO FORCE     EVERYWHERE
 

 ***WARNING: THERE IS ZERO FORCE EVERYWHERE IN THE MODEL BASED ON THE DEFAULT 
             CRITERION. PLEASE CHECK THE VALUE OF THE AVERAGE FORCE DURING THE 
             CURRENT ITERATION TO VERIFY THAT THE FORCE IS SMALL ENOUGH TO BE 
             TREATED AS ZERO. IF NOT, PLEASE USE THE SOLUTION CONTROLS TO RESET 
             THE CRITERION FOR ZERO FORCE.

 AVERAGE HEAT FLUX                  1.585E-07   TIME AVG. HEAT FLUX   2.228E-07
 LARGEST RESIDUAL HEAT FLUX         1.216E-08   AT NODE      18299   DOF 11
 LARGEST INCREMENT OF TEMP.         1.491E-04   AT NODE      18238   DOF 11
 LARGEST CORRECTION TO TEMP.        1.000E-03   AT NODE         61   DOF 11
          HEAT FLUX EQUILIBRIUM NOT ACHIEVED WITHIN TOLERANCE.
 
	UNSYMMETRIC NEW DIRECT SPARSE SOLVER RUNNING ON
 	1 HOST x 1 MPI RANK PER HOST x 1 THREAD PER RANK
        NUMBER OF EQUATIONS:  55023
        NUMBER OF RHS:        1
        NUMBER OF FLOPS:      1.858e+09
        SOLVER ELAPSED TIME:  131ms

               CONVERGENCE CHECKS FOR EQUILIBRIUM ITERATION     2


 AVERAGE FORCE                      5.963E-09   TIME AVG. FORCE       1.000E-02
 LARGEST SCALED RESIDUAL FORCE      5.304E-16   AT NODE      13172   DOF  1
  CORRESPONDING RESIDUAL FORCE      5.304E-16
 LARGEST INCREMENT OF DISP.         1.200E-10   AT NODE      18301   DOF  2
 LARGEST CORRECTION TO DISP.       -1.007E-11   AT NODE      18300   DOF  1
          THERE IS ZERO FORCE     EVERYWHERE
 

 ***WARNING: THERE IS ZERO FORCE EVERYWHERE IN THE MODEL BASED ON THE DEFAULT 
             CRITERION. PLEASE CHECK THE VALUE OF THE AVERAGE FORCE DURING THE 
             CURRENT ITERATION TO VERIFY THAT THE FORCE IS SMALL ENOUGH TO BE 
             TREATED AS ZERO. IF NOT, PLEASE USE THE SOLUTION CONTROLS TO RESET 
             THE CRITERION FOR ZERO FORCE.

 AVERAGE HEAT FLUX                  1.585E-07   TIME AVG. HEAT FLUX   2.228E-07
 LARGEST RESIDUAL HEAT FLUX         5.466E-13   AT NODE      18299   DOF 11
 LARGEST INCREMENT OF TEMP.         1.500E-04   AT NODE      18238   DOF 11
 LARGEST CORRECTION TO TEMP.        9.140E-07   AT NODE      18299   DOF 11
          THE HEAT FLUX EQUILIBRIUM EQUATIONS HAVE CONVERGED

 MAXIMUM NON-PRESCRIBED INCREMENT IN TEMPERATURE IS   1.500E-04

 ITERATION SUMMARY FOR THE INCREMENT:   2 TOTAL ITERATIONS, OF WHICH
   0 ARE SEVERE DISCONTINUITY ITERATIONS AND  2 ARE EQUILIBRIUM ITERATIONS.

 TIME INCREMENT COMPLETED  1.000E-08,  FRACTION OF STEP COMPLETED  1.000E-06
 STEP TIME COMPLETED       2.000E-08,  TOTAL TIME COMPLETED        2.000E-08


  INCREMENT     3 STARTS. ATTEMPT NUMBER  1, TIME INCREMENT  1.000E-08
 
	UNSYMMETRIC NEW DIRECT SPARSE SOLVER RUNNING ON
 	1 HOST x 1 MPI RANK PER HOST x 1 THREAD PER RANK
        NUMBER OF EQUATIONS:  55023
        NUMBER OF RHS:        1
        NUMBER OF FLOPS:      1.858e+09
        SOLVER ELAPSED TIME:  136ms

               CONVERGENCE CHECKS FOR EQUILIBRIUM ITERATION     1


 AVERAGE FORCE                      5.962E-09   TIME AVG. FORCE       1.000E-02
 LARGEST SCALED RESIDUAL FORCE     -6.087E-16   AT NODE      13046   DOF  1
  CORRESPONDING RESIDUAL FORCE     -6.087E-16
 LARGEST INCREMENT OF DISP.         1.200E-10   AT NODE      18301   DOF  2
 LARGEST CORRECTION TO DISP.       -2.419E-15   AT NODE      12203   DOF  1
          THERE IS ZERO FORCE     EVERYWHERE
 

 ***WARNING: THERE IS ZERO FORCE EVERYWHERE IN THE MODEL BASED ON THE DEFAULT 
             CRITERION. PLEASE CHECK THE VALUE OF THE AVERAGE FORCE DURING THE 
             CURRENT ITERATION TO VERIFY THAT THE FORCE IS SMALL ENOUGH TO BE 
             TREATED AS ZERO. IF NOT, PLEASE USE THE SOLUTION CONTROLS TO RESET 
             THE CRITERION FOR ZERO FORCE.

 AVERAGE HEAT FLUX                  1.366E-07   TIME AVG. HEAT FLUX   1.941E-07
 LARGEST RESIDUAL HEAT FLUX         5.303E-11   AT NODE      18299   DOF 11
 LARGEST INCREMENT OF TEMP.         8.871E-05   AT NODE      18238   DOF 11
 LARGEST CORRECTION TO TEMP.       -6.128E-05   AT NODE      18299   DOF 11
 ESTIMATE OF TEMP.    CORRECTION    3.891E-09
 HEAT FLUX EQUILIB. ACCEPTED BASED ON SMALL RESIDUAL AND ESTIMATED CORRECTION

 MAXIMUM NON-PRESCRIBED INCREMENT IN TEMPERATURE IS   8.871E-05
          TIME INCREMENT MAY NOW INCREASE TO    2.000E-08

 ITERATION SUMMARY FOR THE INCREMENT:   1 TOTAL ITERATIONS, OF WHICH
   0 ARE SEVERE DISCONTINUITY ITERATIONS AND  1 ARE EQUILIBRIUM ITERATIONS.

 TIME INCREMENT COMPLETED  1.000E-08,  FRACTION OF STEP COMPLETED  1.500E-06
 STEP TIME COMPLETED       3.000E-08,  TOTAL TIME COMPLETED        3.000E-08


  INCREMENT     4 STARTS. ATTEMPT NUMBER  1, TIME INCREMENT  2.000E-08
 
	UNSYMMETRIC NEW DIRECT SPARSE SOLVER RUNNING ON
 	1 HOST x 1 MPI RANK PER HOST x 1 THREAD PER RANK
        NUMBER OF EQUATIONS:  55023
        NUMBER OF RHS:        1
        NUMBER OF FLOPS:      1.858e+09
        SOLVER ELAPSED TIME:  131ms

               CONVERGENCE CHECKS FOR EQUILIBRIUM ITERATION     1


 AVERAGE FORCE                      5.961E-09   TIME AVG. FORCE       1.000E-02
 LARGEST SCALED RESIDUAL FORCE     -1.110E-15   AT NODE      13355   DOF  1
  CORRESPONDING RESIDUAL FORCE     -1.110E-15
 LARGEST INCREMENT OF DISP.         2.400E-10   AT NODE      18301   DOF  2
 LARGEST CORRECTION TO DISP.       -4.253E-16   AT NODE      14671   DOF  1
          THERE IS ZERO FORCE     EVERYWHERE
 

 ***WARNING: THERE IS ZERO FORCE EVERYWHERE IN THE MODEL BASED ON THE DEFAULT 
             CRITERION. PLEASE CHECK THE VALUE OF THE AVERAGE FORCE DURING THE 
             CURRENT ITERATION TO VERIFY THAT THE FORCE IS SMALL ENOUGH TO BE 
             TREATED AS ZERO. IF NOT, PLEASE USE THE SOLUTION CONTROLS TO RESET 
             THE CRITERION FOR ZERO FORCE.

 AVERAGE HEAT FLUX                  1.062E-07   TIME AVG. HEAT FLUX   1.721E-07
 LARGEST RESIDUAL HEAT FLUX         2.718E-10   AT NODE      18299   DOF 11
 LARGEST INCREMENT OF TEMP.        -9.519E-05   AT NODE      18298   DOF 11
 LARGEST CORRECTION TO TEMP.       -9.555E-05   AT NODE      18299   DOF 11
 ESTIMATE OF TEMP.    CORRECTION    3.060E-08
 HEAT FLUX EQUILIB. ACCEPTED BASED ON SMALL RESIDUAL AND ESTIMATED CORRECTION

 MAXIMUM NON-PRESCRIBED INCREMENT IN TEMPERATURE IS  -9.519E-05
          TIME INCREMENT MAY NOW INCREASE TO    4.000E-08

 ITERATION SUMMARY FOR THE INCREMENT:   1 TOTAL ITERATIONS, OF WHICH
   0 ARE SEVERE DISCONTINUITY ITERATIONS AND  1 ARE EQUILIBRIUM ITERATIONS.

 TIME INCREMENT COMPLETED  2.000E-08,  FRACTION OF STEP COMPLETED  2.500E-06
 STEP TIME COMPLETED       5.000E-08,  TOTAL TIME COMPLETED        5.000E-08


  INCREMENT     5 STARTS. ATTEMPT NUMBER  1, TIME INCREMENT  4.000E-08
 
	UNSYMMETRIC NEW DIRECT SPARSE SOLVER RUNNING ON
 	1 HOST x 1 MPI RANK PER HOST x 1 THREAD PER RANK
        NUMBER OF EQUATIONS:  55023
        NUMBER OF RHS:        1
        NUMBER OF FLOPS:      1.858e+09
        SOLVER ELAPSED TIME:  136ms

               CONVERGENCE CHECKS FOR EQUILIBRIUM ITERATION     1


 AVERAGE FORCE                      5.960E-09   TIME AVG. FORCE       1.000E-02
 LARGEST SCALED RESIDUAL FORCE      1.095E-15   AT NODE      13351   DOF  1
  CORRESPONDING RESIDUAL FORCE      1.095E-15
 LARGEST INCREMENT OF DISP.         4.800E-10   AT NODE      18301   DOF  2
 LARGEST CORRECTION TO DISP.       -4.661E-16   AT NODE      14885   DOF  2
          THERE IS ZERO FORCE     EVERYWHERE
 

 ***WARNING: THERE IS ZERO FORCE EVERYWHERE IN THE MODEL BASED ON THE DEFAULT 
             CRITERION. PLEASE CHECK THE VALUE OF THE AVERAGE FORCE DURING THE 
             CURRENT ITERATION TO VERIFY THAT THE FORCE IS SMALL ENOUGH TO BE 
             TREATED AS ZERO. IF NOT, PLEASE USE THE SOLUTION CONTROLS TO RESET 
             THE CRITERION FOR ZERO FORCE.

 AVERAGE HEAT FLUX                  7.263E-08   TIME AVG. HEAT FLUX   1.522E-07
 LARGEST RESIDUAL HEAT FLUX         6.336E-10   AT NODE      18299   DOF 11
 LARGEST INCREMENT OF TEMP.        -9.179E-05   AT NODE      18237   DOF 11
 LARGEST CORRECTION TO TEMP.       -1.131E-04   AT NODE      18238   DOF 11
 ESTIMATE OF TEMP.    CORRECTION    1.117E-07
 HEAT FLUX EQUILIB. ACCEPTED BASED ON SMALL RESIDUAL AND ESTIMATED CORRECTION

 MAXIMUM NON-PRESCRIBED INCREMENT IN TEMPERATURE IS  -9.179E-05
          TIME INCREMENT MAY NOW INCREASE TO    8.000E-08

 ITERATION SUMMARY FOR THE INCREMENT:   1 TOTAL ITERATIONS, OF WHICH
   0 ARE SEVERE DISCONTINUITY ITERATIONS AND  1 ARE EQUILIBRIUM ITERATIONS.

 TIME INCREMENT COMPLETED  4.000E-08,  FRACTION OF STEP COMPLETED  4.500E-06
 STEP TIME COMPLETED       9.000E-08,  TOTAL TIME COMPLETED        9.000E-08


  INCREMENT     6 STARTS. ATTEMPT NUMBER  1, TIME INCREMENT  8.000E-08
 
	UNSYMMETRIC NEW DIRECT SPARSE SOLVER RUNNING ON
 	1 HOST x 1 MPI RANK PER HOST x 1 THREAD PER RANK
        NUMBER OF EQUATIONS:  55023
        NUMBER OF RHS:        1
        NUMBER OF FLOPS:      1.858e+09
        SOLVER ELAPSED TIME:  135ms

               CONVERGENCE CHECKS FOR EQUILIBRIUM ITERATION     1


 AVERAGE FORCE                      5.956E-09   TIME AVG. FORCE       1.000E-02
 LARGEST SCALED RESIDUAL FORCE     -1.477E-15   AT NODE      13662   DOF  1
  CORRESPONDING RESIDUAL FORCE     -1.477E-15
 LARGEST INCREMENT OF DISP.         9.600E-10   AT NODE      18301   DOF  2
 LARGEST CORRECTION TO DISP.       -5.375E-16   AT NODE      12636   DOF  1
          THERE IS ZERO FORCE     EVERYWHERE
 

 ***WARNING: THERE IS ZERO FORCE EVERYWHERE IN THE MODEL BASED ON THE DEFAULT 
             CRITERION. PLEASE CHECK THE VALUE OF THE AVERAGE FORCE DURING THE 
             CURRENT ITERATION TO VERIFY THAT THE FORCE IS SMALL ENOUGH TO BE 
             TREATED AS ZERO. IF NOT, PLEASE USE THE SOLUTION CONTROLS TO RESET 
             THE CRITERION FOR ZERO FORCE.

 AVERAGE HEAT FLUX                  4.413E-08   TIME AVG. HEAT FLUX   1.342E-07
 LARGEST RESIDUAL HEAT FLUX         1.072E-09   AT NODE      18299   DOF 11
 LARGEST INCREMENT OF TEMP.         8.000E-05   AT NODE         61   DOF 11
 LARGEST CORRECTION TO TEMP.        1.359E-04   AT NODE      18298   DOF 11
          HEAT FLUX EQUILIBRIUM NOT ACHIEVED WITHIN TOLERANCE.
 
	UNSYMMETRIC NEW DIRECT SPARSE SOLVER RUNNING ON
 	1 HOST x 1 MPI RANK PER HOST x 1 THREAD PER RANK
        NUMBER OF EQUATIONS:  55023
        NUMBER OF RHS:        1
        NUMBER OF FLOPS:      1.858e+09
        SOLVER ELAPSED TIME:  136ms

               CONVERGENCE CHECKS FOR EQUILIBRIUM ITERATION     2


 AVERAGE FORCE                      5.956E-09   TIME AVG. FORCE       1.000E-02
 LARGEST SCALED RESIDUAL FORCE     -1.496E-15   AT NODE      13537   DOF  1
  CORRESPONDING RESIDUAL FORCE     -1.496E-15
 LARGEST INCREMENT OF DISP.         9.600E-10   AT NODE      18301   DOF  2
 LARGEST CORRECTION TO DISP.       -2.247E-16   AT NODE      14885   DOF  2
          THERE IS ZERO FORCE     EVERYWHERE
 

 ***WARNING: THERE IS ZERO FORCE EVERYWHERE IN THE MODEL BASED ON THE DEFAULT 
             CRITERION. PLEASE CHECK THE VALUE OF THE AVERAGE FORCE DURING THE 
             CURRENT ITERATION TO VERIFY THAT THE FORCE IS SMALL ENOUGH TO BE 
             TREATED AS ZERO. IF NOT, PLEASE USE THE SOLUTION CONTROLS TO RESET 
             THE CRITERION FOR ZERO FORCE.

 AVERAGE HEAT FLUX                  4.413E-08   TIME AVG. HEAT FLUX   1.342E-07
 LARGEST RESIDUAL HEAT FLUX         8.867E-14   AT NODE      18299   DOF 11
 LARGEST INCREMENT OF TEMP.         8.000E-05   AT NODE         61   DOF 11
 LARGEST CORRECTION TO TEMP.        1.901E-07   AT NODE      18238   DOF 11
          THE HEAT FLUX EQUILIBRIUM EQUATIONS HAVE CONVERGED

 MAXIMUM NON-PRESCRIBED INCREMENT IN TEMPERATURE IS  -7.282E-05
          TIME INCREMENT MAY NOW INCREASE TO    1.200E-07

 ITERATION SUMMARY FOR THE INCREMENT:   2 TOTAL ITERATIONS, OF WHICH
   0 ARE SEVERE DISCONTINUITY ITERATIONS AND  2 ARE EQUILIBRIUM ITERATIONS.

 TIME INCREMENT COMPLETED  8.000E-08,  FRACTION OF STEP COMPLETED  8.500E-06
 STEP TIME COMPLETED       1.700E-07,  TOTAL TIME COMPLETED        1.700E-07


  INCREMENT     7 STARTS. ATTEMPT NUMBER  1, TIME INCREMENT  1.200E-07
 
	UNSYMMETRIC NEW DIRECT SPARSE SOLVER RUNNING ON
 	1 HOST x 1 MPI RANK PER HOST x 1 THREAD PER RANK
        NUMBER OF EQUATIONS:  55023
        NUMBER OF RHS:        1
        NUMBER OF FLOPS:      1.858e+09
        SOLVER ELAPSED TIME:  130ms

               CONVERGENCE CHECKS FOR EQUILIBRIUM ITERATION     1


 AVERAGE FORCE                      5.950E-09   TIME AVG. FORCE       1.000E-02
 LARGEST SCALED RESIDUAL FORCE      2.421E-15   AT NODE      13412   DOF  1
  CORRESPONDING RESIDUAL FORCE      2.421E-15
 LARGEST INCREMENT OF DISP.         1.440E-09   AT NODE      18301   DOF  2
 LARGEST CORRECTION TO DISP.       -5.723E-16   AT NODE      14519   DOF  2
          THERE IS ZERO FORCE     EVERYWHERE
 

 ***WARNING: THERE IS ZERO FORCE EVERYWHERE IN THE MODEL BASED ON THE DEFAULT 
             CRITERION. PLEASE CHECK THE VALUE OF THE AVERAGE FORCE DURING THE 
             CURRENT ITERATION TO VERIFY THAT THE FORCE IS SMALL ENOUGH TO BE 
             TREATED AS ZERO. IF NOT, PLEASE USE THE SOLUTION CONTROLS TO RESET 
             THE CRITERION FOR ZERO FORCE.

 AVERAGE HEAT FLUX                  2.395E-08   TIME AVG. HEAT FLUX   1.184E-07
 LARGEST RESIDUAL HEAT FLUX         5.176E-10   AT NODE      18299   DOF 11
 LARGEST INCREMENT OF TEMP.         1.200E-04   AT NODE         61   DOF 11
 LARGEST CORRECTION TO TEMP.       -9.653E-05   AT NODE      18297   DOF 11
 ESTIMATE OF TEMP.    CORRECTION   -3.675E-07
 HEAT FLUX EQUILIB. ACCEPTED BASED ON SMALL RESIDUAL AND ESTIMATED CORRECTION

 MAXIMUM NON-PRESCRIBED INCREMENT IN TEMPERATURE IS  -6.686E-05
          TIME INCREMENT MAY NOW INCREASE TO    2.400E-07

 ITERATION SUMMARY FOR THE INCREMENT:   1 TOTAL ITERATIONS, OF WHICH
   0 ARE SEVERE DISCONTINUITY ITERATIONS AND  1 ARE EQUILIBRIUM ITERATIONS.

 TIME INCREMENT COMPLETED  1.200E-07,  FRACTION OF STEP COMPLETED  1.450E-05
 STEP TIME COMPLETED       2.900E-07,  TOTAL TIME COMPLETED        2.900E-07


  INCREMENT     8 STARTS. ATTEMPT NUMBER  1, TIME INCREMENT  2.400E-07
 
	UNSYMMETRIC NEW DIRECT SPARSE SOLVER RUNNING ON
 	1 HOST x 1 MPI RANK PER HOST x 1 THREAD PER RANK
        NUMBER OF EQUATIONS:  55023
        NUMBER OF RHS:        1
        NUMBER OF FLOPS:      1.858e+09
        SOLVER ELAPSED TIME:  136ms

               CONVERGENCE CHECKS FOR EQUILIBRIUM ITERATION     1


 AVERAGE FORCE                      5.939E-09   TIME AVG. FORCE       1.000E-02
 LARGEST SCALED RESIDUAL FORCE      2.465E-15   AT NODE      13535   DOF  1
  CORRESPONDING RESIDUAL FORCE      2.465E-15
 LARGEST INCREMENT OF DISP.         2.880E-09   AT NODE      18301   DOF  2
 LARGEST CORRECTION TO DISP.       -2.147E-15   AT NODE      13116   DOF  2
          THERE IS ZERO FORCE     EVERYWHERE
 

 ***WARNING: THERE IS ZERO FORCE EVERYWHERE IN THE MODEL BASED ON THE DEFAULT 
             CRITERION. PLEASE CHECK THE VALUE OF THE AVERAGE FORCE DURING THE 
             CURRENT ITERATION TO VERIFY THAT THE FORCE IS SMALL ENOUGH TO BE 
             TREATED AS ZERO. IF NOT, PLEASE USE THE SOLUTION CONTROLS TO RESET 
             THE CRITERION FOR ZERO FORCE.

 AVERAGE HEAT FLUX                  2.336E-09   TIME AVG. HEAT FLUX   1.039E-07
 LARGEST RESIDUAL HEAT FLUX         5.541E-10   AT NODE      18238   DOF 11
 LARGEST INCREMENT OF TEMP.         2.400E-04   AT NODE         61   DOF 11
 LARGEST CORRECTION TO TEMP.        1.051E-04   AT NODE      18296   DOF 11
          HEAT FLUX EQUILIBRIUM NOT ACHIEVED WITHIN TOLERANCE.
 
	UNSYMMETRIC NEW DIRECT SPARSE SOLVER RUNNING ON
 	1 HOST x 1 MPI RANK PER HOST x 1 THREAD PER RANK
        NUMBER OF EQUATIONS:  55023
        NUMBER OF RHS:        1
        NUMBER OF FLOPS:      1.858e+09
        SOLVER ELAPSED TIME:  129ms

               CONVERGENCE CHECKS FOR EQUILIBRIUM ITERATION     2


 AVERAGE FORCE                      5.939E-09   TIME AVG. FORCE       1.000E-02
 LARGEST SCALED RESIDUAL FORCE     -1.990E-15   AT NODE      13528   DOF  1
  CORRESPONDING RESIDUAL FORCE     -1.990E-15
 LARGEST INCREMENT OF DISP.         2.880E-09   AT NODE      18301   DOF  2
 LARGEST CORRECTION TO DISP.        4.805E-16   AT NODE      13116   DOF  2
          THERE IS ZERO FORCE     EVERYWHERE
 

 ***WARNING: THERE IS ZERO FORCE EVERYWHERE IN THE MODEL BASED ON THE DEFAULT 
             CRITERION. PLEASE CHECK THE VALUE OF THE AVERAGE FORCE DURING THE 
             CURRENT ITERATION TO VERIFY THAT THE FORCE IS SMALL ENOUGH TO BE 
             TREATED AS ZERO. IF NOT, PLEASE USE THE SOLUTION CONTROLS TO RESET 
             THE CRITERION FOR ZERO FORCE.

 AVERAGE HEAT FLUX                  2.339E-09   TIME AVG. HEAT FLUX   1.039E-07
 LARGEST RESIDUAL HEAT FLUX         5.257E-14   AT NODE      18299   DOF 11
 LARGEST INCREMENT OF TEMP.         2.400E-04   AT NODE         61   DOF 11
 LARGEST CORRECTION TO TEMP.        1.214E-07   AT NODE       1402   DOF 11
          THE HEAT FLUX EQUILIBRIUM EQUATIONS HAVE CONVERGED

 MAXIMUM NON-PRESCRIBED INCREMENT IN TEMPERATURE IS  -1.799E-04
          TIME INCREMENT MAY NOW INCREASE TO    3.600E-07

 ITERATION SUMMARY FOR THE INCREMENT:   2 TOTAL ITERATIONS, OF WHICH
   0 ARE SEVERE DISCONTINUITY ITERATIONS AND  2 ARE EQUILIBRIUM ITERATIONS.

 TIME INCREMENT COMPLETED  2.400E-07,  FRACTION OF STEP COMPLETED  2.650E-05
 STEP TIME COMPLETED       5.300E-07,  TOTAL TIME COMPLETED        5.300E-07


  INCREMENT     9 STARTS. ATTEMPT NUMBER  1, TIME INCREMENT  3.600E-07
 
	UNSYMMETRIC NEW DIRECT SPARSE SOLVER RUNNING ON
 	1 HOST x 1 MPI RANK PER HOST x 1 THREAD PER RANK
        NUMBER OF EQUATIONS:  55023
        NUMBER OF RHS:        1
        NUMBER OF FLOPS:      1.858e+09
        SOLVER ELAPSED TIME:  130ms

               CONVERGENCE CHECKS FOR EQUILIBRIUM ITERATION     1


 AVERAGE FORCE                      5.922E-09   TIME AVG. FORCE       1.000E-02
 LARGEST SCALED RESIDUAL FORCE      3.491E-15   AT NODE      13473   DOF  1
  CORRESPONDING RESIDUAL FORCE      3.491E-15
 LARGEST INCREMENT OF DISP.         4.320E-09   AT NODE      18301   DOF  2
 LARGEST CORRECTION TO DISP.        8.988E-16   AT NODE      13684   DOF  1
          THERE IS ZERO FORCE     EVERYWHERE
 

 ***WARNING: THERE IS ZERO FORCE EVERYWHERE IN THE MODEL BASED ON THE DEFAULT 
             CRITERION. PLEASE CHECK THE VALUE OF THE AVERAGE FORCE DURING THE 
             CURRENT ITERATION TO VERIFY THAT THE FORCE IS SMALL ENOUGH TO BE 
             TREATED AS ZERO. IF NOT, PLEASE USE THE SOLUTION CONTROLS TO RESET 
             THE CRITERION FOR ZERO FORCE.

 AVERAGE HEAT FLUX                  9.613E-09   TIME AVG. HEAT FLUX   9.345E-08
 LARGEST RESIDUAL HEAT FLUX         9.991E-11   AT NODE      18238   DOF 11
 LARGEST INCREMENT OF TEMP.         3.600E-04   AT NODE         61   DOF 11
 LARGEST CORRECTION TO TEMP.       -5.779E-05   AT NODE      18295   DOF 11
 ESTIMATE OF TEMP.    CORRECTION    2.518E-07
 HEAT FLUX EQUILIB. ACCEPTED BASED ON SMALL RESIDUAL AND ESTIMATED CORRECTION

 MAXIMUM NON-PRESCRIBED INCREMENT IN TEMPERATURE IS  -2.864E-04
          TIME INCREMENT MAY NOW INCREASE TO    7.200E-07

 ITERATION SUMMARY FOR THE INCREMENT:   1 TOTAL ITERATIONS, OF WHICH
   0 ARE SEVERE DISCONTINUITY ITERATIONS AND  1 ARE EQUILIBRIUM ITERATIONS.

 TIME INCREMENT COMPLETED  3.600E-07,  FRACTION OF STEP COMPLETED  4.450E-05
 STEP TIME COMPLETED       8.900E-07,  TOTAL TIME COMPLETED        8.900E-07


  INCREMENT    10 STARTS. ATTEMPT NUMBER  1, TIME INCREMENT  7.200E-07
 
	UNSYMMETRIC NEW DIRECT SPARSE SOLVER RUNNING ON
 	1 HOST x 1 MPI RANK PER HOST x 1 THREAD PER RANK
        NUMBER OF EQUATIONS:  55023
        NUMBER OF RHS:        1
        NUMBER OF FLOPS:      1.858e+09
        SOLVER ELAPSED TIME:  130ms

               CONVERGENCE CHECKS FOR EQUILIBRIUM ITERATION     1


 AVERAGE FORCE                      5.889E-09   TIME AVG. FORCE       1.000E-02
 LARGEST SCALED RESIDUAL FORCE     -3.551E-15   AT NODE      13349   DOF  1
  CORRESPONDING RESIDUAL FORCE     -3.551E-15
 LARGEST INCREMENT OF DISP.         8.640E-09   AT NODE      18301   DOF  2
 LARGEST CORRECTION TO DISP.       -2.341E-15   AT NODE      13543   DOF  2
          THERE IS ZERO FORCE     EVERYWHERE
 

 ***WARNING: THERE IS ZERO FORCE EVERYWHERE IN THE MODEL BASED ON THE DEFAULT 
             CRITERION. PLEASE CHECK THE VALUE OF THE AVERAGE FORCE DURING THE 
             CURRENT ITERATION TO VERIFY THAT THE FORCE IS SMALL ENOUGH TO BE 
             TREATED AS ZERO. IF NOT, PLEASE USE THE SOLUTION CONTROLS TO RESET 
             THE CRITERION FOR ZERO FORCE.

 AVERAGE HEAT FLUX                  1.997E-08   TIME AVG. HEAT FLUX   8.610E-08
 LARGEST RESIDUAL HEAT FLUX         4.408E-11   AT NODE      11101   DOF 11
 LARGEST INCREMENT OF TEMP.         7.200E-04   AT NODE         61   DOF 11
 LARGEST CORRECTION TO TEMP.       -1.759E-05   AT NODE      18291   DOF 11
 ESTIMATE OF TEMP.    CORRECTION   -2.742E-08
 HEAT FLUX EQUILIB. ACCEPTED BASED ON SMALL RESIDUAL AND ESTIMATED CORRECTION

 MAXIMUM NON-PRESCRIBED INCREMENT IN TEMPERATURE IS  -5.583E-04
          TIME INCREMENT MAY NOW INCREASE TO    1.440E-06

 ITERATION SUMMARY FOR THE INCREMENT:   1 TOTAL ITERATIONS, OF WHICH
   0 ARE SEVERE DISCONTINUITY ITERATIONS AND  1 ARE EQUILIBRIUM ITERATIONS.

 TIME INCREMENT COMPLETED  7.200E-07,  FRACTION OF STEP COMPLETED  8.050E-05
 STEP TIME COMPLETED       1.610E-06,  TOTAL TIME COMPLETED        1.610E-06


  INCREMENT    11 STARTS. ATTEMPT NUMBER  1, TIME INCREMENT  1.440E-06
 
	UNSYMMETRIC NEW DIRECT SPARSE SOLVER RUNNING ON
 	1 HOST x 1 MPI RANK PER HOST x 1 THREAD PER RANK
        NUMBER OF EQUATIONS:  55023
        NUMBER OF RHS:        1
        NUMBER OF FLOPS:      1.858e+09
        SOLVER ELAPSED TIME:  131ms

               CONVERGENCE CHECKS FOR EQUILIBRIUM ITERATION     1


 AVERAGE FORCE                      5.822E-09   TIME AVG. FORCE       1.000E-02
 LARGEST SCALED RESIDUAL FORCE     -5.994E-15   AT NODE      13468   DOF  1
  CORRESPONDING RESIDUAL FORCE     -5.994E-15
 LARGEST INCREMENT OF DISP.         1.728E-08   AT NODE      18301   DOF  2
 LARGEST CORRECTION TO DISP.        2.904E-15   AT NODE      13566   DOF  1
          THERE IS ZERO FORCE     EVERYWHERE
 

 ***WARNING: THERE IS ZERO FORCE EVERYWHERE IN THE MODEL BASED ON THE DEFAULT 
             CRITERION. PLEASE CHECK THE VALUE OF THE AVERAGE FORCE DURING THE 
             CURRENT ITERATION TO VERIFY THAT THE FORCE IS SMALL ENOUGH TO BE 
             TREATED AS ZERO. IF NOT, PLEASE USE THE SOLUTION CONTROLS TO RESET 
             THE CRITERION FOR ZERO FORCE.

 AVERAGE HEAT FLUX                  2.561E-08   TIME AVG. HEAT FLUX   8.060E-08
 LARGEST RESIDUAL HEAT FLUX         1.599E-09   AT NODE      11101   DOF 11
 LARGEST INCREMENT OF TEMP.         1.440E-03   AT NODE         61   DOF 11
 LARGEST CORRECTION TO TEMP.        1.545E-04   AT NODE       1461   DOF 11
          HEAT FLUX EQUILIBRIUM NOT ACHIEVED WITHIN TOLERANCE.
 
	UNSYMMETRIC NEW DIRECT SPARSE SOLVER RUNNING ON
 	1 HOST x 1 MPI RANK PER HOST x 1 THREAD PER RANK
        NUMBER OF EQUATIONS:  55023
        NUMBER OF RHS:        1
        NUMBER OF FLOPS:      1.858e+09
        SOLVER ELAPSED TIME:  135ms

               CONVERGENCE CHECKS FOR EQUILIBRIUM ITERATION     2


 AVERAGE FORCE                      5.822E-09   TIME AVG. FORCE       1.000E-02
 LARGEST SCALED RESIDUAL FORCE      4.870E-15   AT NODE      13475   DOF  1
  CORRESPONDING RESIDUAL FORCE      4.870E-15
 LARGEST INCREMENT OF DISP.         1.728E-08   AT NODE      18301   DOF  2
 LARGEST CORRECTION TO DISP.       -8.497E-16   AT NODE      15556   DOF  2
          THERE IS ZERO FORCE     EVERYWHERE
 

 ***WARNING: THERE IS ZERO FORCE EVERYWHERE IN THE MODEL BASED ON THE DEFAULT 
             CRITERION. PLEASE CHECK THE VALUE OF THE AVERAGE FORCE DURING THE 
             CURRENT ITERATION TO VERIFY THAT THE FORCE IS SMALL ENOUGH TO BE 
             TREATED AS ZERO. IF NOT, PLEASE USE THE SOLUTION CONTROLS TO RESET 
             THE CRITERION FOR ZERO FORCE.

 AVERAGE HEAT FLUX                  2.561E-08   TIME AVG. HEAT FLUX   8.060E-08
 LARGEST RESIDUAL HEAT FLUX         3.853E-13   AT NODE      11101   DOF 11
 LARGEST INCREMENT OF TEMP.         1.440E-03   AT NODE         61   DOF 11
 LARGEST CORRECTION TO TEMP.        1.557E-06   AT NODE       1036   DOF 11
          THE HEAT FLUX EQUILIBRIUM EQUATIONS HAVE CONVERGED

 MAXIMUM NON-PRESCRIBED INCREMENT IN TEMPERATURE IS  -1.000E-03
          TIME INCREMENT MAY NOW INCREASE TO    2.160E-06

 ITERATION SUMMARY FOR THE INCREMENT:   2 TOTAL ITERATIONS, OF WHICH
   0 ARE SEVERE DISCONTINUITY ITERATIONS AND  2 ARE EQUILIBRIUM ITERATIONS.

 TIME INCREMENT COMPLETED  1.440E-06,  FRACTION OF STEP COMPLETED  1.525E-04
 STEP TIME COMPLETED       3.050E-06,  TOTAL TIME COMPLETED        3.050E-06


  INCREMENT    12 STARTS. ATTEMPT NUMBER  1, TIME INCREMENT  2.160E-06
 
	UNSYMMETRIC NEW DIRECT SPARSE SOLVER RUNNING ON
 	1 HOST x 1 MPI RANK PER HOST x 1 THREAD PER RANK
        NUMBER OF EQUATIONS:  55023
        NUMBER OF RHS:        1
        NUMBER OF FLOPS:      1.858e+09
        SOLVER ELAPSED TIME:  138ms

               CONVERGENCE CHECKS FOR EQUILIBRIUM ITERATION     1


 AVERAGE FORCE                      5.722E-09   TIME AVG. FORCE       1.000E-02
 LARGEST SCALED RESIDUAL FORCE      7.477E-15   AT NODE      13476   DOF  1
  CORRESPONDING RESIDUAL FORCE      7.477E-15
 LARGEST INCREMENT OF DISP.         2.592E-08   AT NODE      18301   DOF  2
 LARGEST CORRECTION TO DISP.        5.253E-15   AT NODE      13480   DOF  1
          THERE IS ZERO FORCE     EVERYWHERE
 

 ***WARNING: THERE IS ZERO FORCE EVERYWHERE IN THE MODEL BASED ON THE DEFAULT 
             CRITERION. PLEASE CHECK THE VALUE OF THE AVERAGE FORCE DURING THE 
             CURRENT ITERATION TO VERIFY THAT THE FORCE IS SMALL ENOUGH TO BE 
             TREATED AS ZERO. IF NOT, PLEASE USE THE SOLUTION CONTROLS TO RESET 
             THE CRITERION FOR ZERO FORCE.

 AVERAGE HEAT FLUX                  2.945E-08   TIME AVG. HEAT FLUX   7.634E-08
 LARGEST RESIDUAL HEAT FLUX         6.203E-09   AT NODE      11101   DOF 11
 LARGEST INCREMENT OF TEMP.         2.160E-03   AT NODE         61   DOF 11
 LARGEST CORRECTION TO TEMP.        3.439E-04   AT NODE       1036   DOF 11
          HEAT FLUX EQUILIBRIUM NOT ACHIEVED WITHIN TOLERANCE.
 
	UNSYMMETRIC NEW DIRECT SPARSE SOLVER RUNNING ON
 	1 HOST x 1 MPI RANK PER HOST x 1 THREAD PER RANK
        NUMBER OF EQUATIONS:  55023
        NUMBER OF RHS:        1
        NUMBER OF FLOPS:      1.858e+09
        SOLVER ELAPSED TIME:  124ms

               CONVERGENCE CHECKS FOR EQUILIBRIUM ITERATION     2


 AVERAGE FORCE                      5.722E-09   TIME AVG. FORCE       1.000E-02
 LARGEST SCALED RESIDUAL FORCE     -6.129E-15   AT NODE      13470   DOF  1
  CORRESPONDING RESIDUAL FORCE     -6.129E-15
 LARGEST INCREMENT OF DISP.         2.592E-08   AT NODE      18301   DOF  2
 LARGEST CORRECTION TO DISP.       -1.482E-15   AT NODE      12750   DOF  2
          THERE IS ZERO FORCE     EVERYWHERE
 

 ***WARNING: THERE IS ZERO FORCE EVERYWHERE IN THE MODEL BASED ON THE DEFAULT 
             CRITERION. PLEASE CHECK THE VALUE OF THE AVERAGE FORCE DURING THE 
             CURRENT ITERATION TO VERIFY THAT THE FORCE IS SMALL ENOUGH TO BE 
             TREATED AS ZERO. IF NOT, PLEASE USE THE SOLUTION CONTROLS TO RESET 
             THE CRITERION FOR ZERO FORCE.

 AVERAGE HEAT FLUX                  2.943E-08   TIME AVG. HEAT FLUX   7.634E-08
 LARGEST RESIDUAL HEAT FLUX         5.645E-12   AT NODE      11101   DOF 11
 LARGEST INCREMENT OF TEMP.         2.160E-03   AT NODE         61   DOF 11
 LARGEST CORRECTION TO TEMP.        9.549E-06   AT NODE       1036   DOF 11
          THE HEAT FLUX EQUILIBRIUM EQUATIONS HAVE CONVERGED

 MAXIMUM NON-PRESCRIBED INCREMENT IN TEMPERATURE IS  -1.183E-03
          TIME INCREMENT MAY NOW INCREASE TO    3.240E-06

 ITERATION SUMMARY FOR THE INCREMENT:   2 TOTAL ITERATIONS, OF WHICH
   0 ARE SEVERE DISCONTINUITY ITERATIONS AND  2 ARE EQUILIBRIUM ITERATIONS.

 TIME INCREMENT COMPLETED  2.160E-06,  FRACTION OF STEP COMPLETED  2.605E-04
 STEP TIME COMPLETED       5.210E-06,  TOTAL TIME COMPLETED        5.210E-06


  INCREMENT    13 STARTS. ATTEMPT NUMBER  1, TIME INCREMENT  3.240E-06
 
	UNSYMMETRIC NEW DIRECT SPARSE SOLVER RUNNING ON
 	1 HOST x 1 MPI RANK PER HOST x 1 THREAD PER RANK
        NUMBER OF EQUATIONS:  55023
        NUMBER OF RHS:        1
        NUMBER OF FLOPS:      1.858e+09
        SOLVER ELAPSED TIME:  139ms

               CONVERGENCE CHECKS FOR EQUILIBRIUM ITERATION     1


 AVERAGE FORCE                      5.571E-09   TIME AVG. FORCE       1.000E-02
 LARGEST SCALED RESIDUAL FORCE      5.461E-15   AT NODE      13463   DOF  1
  CORRESPONDING RESIDUAL FORCE      5.461E-15
 LARGEST INCREMENT OF DISP.         3.888E-08   AT NODE      18301   DOF  2
 LARGEST CORRECTION TO DISP.        1.045E-14   AT NODE      13908   DOF  1
          THERE IS ZERO FORCE     EVERYWHERE
 

 ***WARNING: THERE IS ZERO FORCE EVERYWHERE IN THE MODEL BASED ON THE DEFAULT 
             CRITERION. PLEASE CHECK THE VALUE OF THE AVERAGE FORCE DURING THE 
             CURRENT ITERATION TO VERIFY THAT THE FORCE IS SMALL ENOUGH TO BE 
             TREATED AS ZERO. IF NOT, PLEASE USE THE SOLUTION CONTROLS TO RESET 
             THE CRITERION FOR ZERO FORCE.

 AVERAGE HEAT FLUX                  2.117E-08   TIME AVG. HEAT FLUX   7.209E-08
 LARGEST RESIDUAL HEAT FLUX         1.857E-08   AT NODE      18238   DOF 11
 LARGEST INCREMENT OF TEMP.         3.240E-03   AT NODE         61   DOF 11
 LARGEST CORRECTION TO TEMP.        8.696E-04   AT NODE       1036   DOF 11
          HEAT FLUX EQUILIBRIUM NOT ACHIEVED WITHIN TOLERANCE.
 
	UNSYMMETRIC NEW DIRECT SPARSE SOLVER RUNNING ON
 	1 HOST x 1 MPI RANK PER HOST x 1 THREAD PER RANK
        NUMBER OF EQUATIONS:  55023
        NUMBER OF RHS:        1
        NUMBER OF FLOPS:      1.858e+09
        SOLVER ELAPSED TIME:  143ms

               CONVERGENCE CHECKS FOR EQUILIBRIUM ITERATION     2


 AVERAGE FORCE                      5.571E-09   TIME AVG. FORCE       1.000E-02
 LARGEST SCALED RESIDUAL FORCE      5.967E-15   AT NODE      13409   DOF  1
  CORRESPONDING RESIDUAL FORCE      5.967E-15
 LARGEST INCREMENT OF DISP.         3.888E-08   AT NODE      18301   DOF  2
 LARGEST CORRECTION TO DISP.        1.195E-15   AT NODE      12452   DOF  1
          THERE IS ZERO FORCE     EVERYWHERE
 

 ***WARNING: THERE IS ZERO FORCE EVERYWHERE IN THE MODEL BASED ON THE DEFAULT 
             CRITERION. PLEASE CHECK THE VALUE OF THE AVERAGE FORCE DURING THE 
             CURRENT ITERATION TO VERIFY THAT THE FORCE IS SMALL ENOUGH TO BE 
             TREATED AS ZERO. IF NOT, PLEASE USE THE SOLUTION CONTROLS TO RESET 
             THE CRITERION FOR ZERO FORCE.

 AVERAGE HEAT FLUX                  2.095E-08   TIME AVG. HEAT FLUX   7.208E-08
 LARGEST RESIDUAL HEAT FLUX         5.684E-11   AT NODE      18238   DOF 11
 LARGEST INCREMENT OF TEMP.         3.240E-03   AT NODE         61   DOF 11
 LARGEST CORRECTION TO TEMP.        3.777E-05   AT NODE      13175   DOF 11
 ESTIMATE OF TEMP.    CORRECTION    1.156E-07
 HEAT FLUX EQUILIB. ACCEPTED BASED ON SMALL RESIDUAL AND ESTIMATED CORRECTION

 MAXIMUM NON-PRESCRIBED INCREMENT IN TEMPERATURE IS  -9.298E-04
          TIME INCREMENT MAY NOW INCREASE TO    4.860E-06

 ITERATION SUMMARY FOR THE INCREMENT:   2 TOTAL ITERATIONS, OF WHICH
   0 ARE SEVERE DISCONTINUITY ITERATIONS AND  2 ARE EQUILIBRIUM ITERATIONS.

 TIME INCREMENT COMPLETED  3.240E-06,  FRACTION OF STEP COMPLETED  4.225E-04
 STEP TIME COMPLETED       8.450E-06,  TOTAL TIME COMPLETED        8.450E-06


  INCREMENT    14 STARTS. ATTEMPT NUMBER  1, TIME INCREMENT  4.860E-06
 
	UNSYMMETRIC NEW DIRECT SPARSE SOLVER RUNNING ON
 	1 HOST x 1 MPI RANK PER HOST x 1 THREAD PER RANK
        NUMBER OF EQUATIONS:  55023
        NUMBER OF RHS:        1
        NUMBER OF FLOPS:      1.858e+09
        SOLVER ELAPSED TIME:  129ms

               CONVERGENCE CHECKS FOR EQUILIBRIUM ITERATION     1


 AVERAGE FORCE                      5.346E-09   TIME AVG. FORCE       1.000E-02
 LARGEST SCALED RESIDUAL FORCE     -7.833E-15   AT NODE      13469   DOF  1
  CORRESPONDING RESIDUAL FORCE     -7.833E-15
 LARGEST INCREMENT OF DISP.         5.832E-08   AT NODE      18301   DOF  2
 LARGEST CORRECTION TO DISP.        2.354E-14   AT NODE      13664   DOF  1
          THERE IS ZERO FORCE     EVERYWHERE
 

 ***WARNING: THERE IS ZERO FORCE EVERYWHERE IN THE MODEL BASED ON THE DEFAULT 
             CRITERION. PLEASE CHECK THE VALUE OF THE AVERAGE FORCE DURING THE 
             CURRENT ITERATION TO VERIFY THAT THE FORCE IS SMALL ENOUGH TO BE 
             TREATED AS ZERO. IF NOT, PLEASE USE THE SOLUTION CONTROLS TO RESET 
             THE CRITERION FOR ZERO FORCE.

 AVERAGE HEAT FLUX                  1.554E-08   TIME AVG. HEAT FLUX   6.804E-08
 LARGEST RESIDUAL HEAT FLUX         3.450E-08   AT NODE      18299   DOF 11
 LARGEST INCREMENT OF TEMP.         4.860E-03   AT NODE         61   DOF 11
 LARGEST CORRECTION TO TEMP.        1.679E-03   AT NODE      18238   DOF 11
          HEAT FLUX EQUILIBRIUM NOT ACHIEVED WITHIN TOLERANCE.
 
	UNSYMMETRIC NEW DIRECT SPARSE SOLVER RUNNING ON
 	1 HOST x 1 MPI RANK PER HOST x 1 THREAD PER RANK
        NUMBER OF EQUATIONS:  55023
        NUMBER OF RHS:        1
        NUMBER OF FLOPS:      1.858e+09
        SOLVER ELAPSED TIME:  141ms

               CONVERGENCE CHECKS FOR EQUILIBRIUM ITERATION     2


 AVERAGE FORCE                      5.346E-09   TIME AVG. FORCE       1.000E-02
 LARGEST SCALED RESIDUAL FORCE      6.881E-15   AT NODE      13533   DOF  1
  CORRESPONDING RESIDUAL FORCE      6.881E-15
 LARGEST INCREMENT OF DISP.         5.832E-08   AT NODE      18301   DOF  2
 LARGEST CORRECTION TO DISP.        1.678E-15   AT NODE      12140   DOF  2
          THERE IS ZERO FORCE     EVERYWHERE
 

 ***WARNING: THERE IS ZERO FORCE EVERYWHERE IN THE MODEL BASED ON THE DEFAULT 
             CRITERION. PLEASE CHECK THE VALUE OF THE AVERAGE FORCE DURING THE 
             CURRENT ITERATION TO VERIFY THAT THE FORCE IS SMALL ENOUGH TO BE 
             TREATED AS ZERO. IF NOT, PLEASE USE THE SOLUTION CONTROLS TO RESET 
             THE CRITERION FOR ZERO FORCE.

 AVERAGE HEAT FLUX                  1.523E-08   TIME AVG. HEAT FLUX   6.802E-08
 LARGEST RESIDUAL HEAT FLUX         3.830E-10   AT NODE      18298   DOF 11
 LARGEST INCREMENT OF TEMP.         4.860E-03   AT NODE         61   DOF 11
 LARGEST CORRECTION TO TEMP.        5.693E-05   AT NODE      18238   DOF 11
          HEAT FLUX EQUILIBRIUM NOT ACHIEVED WITHIN TOLERANCE.
 
	UNSYMMETRIC NEW DIRECT SPARSE SOLVER RUNNING ON
 	1 HOST x 1 MPI RANK PER HOST x 1 THREAD PER RANK
        NUMBER OF EQUATIONS:  55023
        NUMBER OF RHS:        1
        NUMBER OF FLOPS:      1.858e+09
        SOLVER ELAPSED TIME:  138ms

               CONVERGENCE CHECKS FOR EQUILIBRIUM ITERATION     3


 AVERAGE FORCE                      5.346E-09   TIME AVG. FORCE       1.000E-02
 LARGEST SCALED RESIDUAL FORCE      1.403E-14   AT NODE      13476   DOF  1
  CORRESPONDING RESIDUAL FORCE      1.403E-14
 LARGEST INCREMENT OF DISP.         5.832E-08   AT NODE      18301   DOF  2
 LARGEST CORRECTION TO DISP.        1.581E-15   AT NODE      13421   DOF  2
          THERE IS ZERO FORCE     EVERYWHERE
 

 ***WARNING: THERE IS ZERO FORCE EVERYWHERE IN THE MODEL BASED ON THE DEFAULT 
             CRITERION. PLEASE CHECK THE VALUE OF THE AVERAGE FORCE DURING THE 
             CURRENT ITERATION TO VERIFY THAT THE FORCE IS SMALL ENOUGH TO BE 
             TREATED AS ZERO. IF NOT, PLEASE USE THE SOLUTION CONTROLS TO RESET 
             THE CRITERION FOR ZERO FORCE.

 AVERAGE HEAT FLUX                  1.522E-08   TIME AVG. HEAT FLUX   6.802E-08
 LARGEST RESIDUAL HEAT FLUX         8.514E-14   AT NODE      18298   DOF 11
 LARGEST INCREMENT OF TEMP.         4.860E-03   AT NODE         61   DOF 11
 LARGEST CORRECTION TO TEMP.        3.950E-07   AT NODE      18238   DOF 11
          THE HEAT FLUX EQUILIBRIUM EQUATIONS HAVE CONVERGED

 MAXIMUM NON-PRESCRIBED INCREMENT IN TEMPERATURE IS  -6.816E-04
          TIME INCREMENT MAY NOW INCREASE TO    7.290E-06

 ITERATION SUMMARY FOR THE INCREMENT:   3 TOTAL ITERATIONS, OF WHICH
   0 ARE SEVERE DISCONTINUITY ITERATIONS AND  3 ARE EQUILIBRIUM ITERATIONS.

 TIME INCREMENT COMPLETED  4.860E-06,  FRACTION OF STEP COMPLETED  6.655E-04
 STEP TIME COMPLETED       1.331E-05,  TOTAL TIME COMPLETED        1.331E-05


  INCREMENT    15 STARTS. ATTEMPT NUMBER  1, TIME INCREMENT  7.290E-06
 
	UNSYMMETRIC NEW DIRECT SPARSE SOLVER RUNNING ON
 	1 HOST x 1 MPI RANK PER HOST x 1 THREAD PER RANK
        NUMBER OF EQUATIONS:  55023
        NUMBER OF RHS:        1
        NUMBER OF FLOPS:      1.858e+09
        SOLVER ELAPSED TIME:  149ms

               CONVERGENCE CHECKS FOR EQUILIBRIUM ITERATION     1


 AVERAGE FORCE                      5.007E-09   TIME AVG. FORCE       1.000E-02
 LARGEST SCALED RESIDUAL FORCE     -7.266E-15   AT NODE      13476   DOF  1
  CORRESPONDING RESIDUAL FORCE     -7.266E-15
 LARGEST INCREMENT OF DISP.         8.748E-08   AT NODE      18301   DOF  2
 LARGEST CORRECTION TO DISP.        5.231E-14   AT NODE      13481   DOF  1
          THERE IS ZERO FORCE     EVERYWHERE
 

 ***WARNING: THERE IS ZERO FORCE EVERYWHERE IN THE MODEL BASED ON THE DEFAULT 
             CRITERION. PLEASE CHECK THE VALUE OF THE AVERAGE FORCE DURING THE 
             CURRENT ITERATION TO VERIFY THAT THE FORCE IS SMALL ENOUGH TO BE 
             TREATED AS ZERO. IF NOT, PLEASE USE THE SOLUTION CONTROLS TO RESET 
             THE CRITERION FOR ZERO FORCE.

 AVERAGE HEAT FLUX                  1.454E-08   TIME AVG. HEAT FLUX   6.445E-08
 LARGEST RESIDUAL HEAT FLUX         4.123E-08   AT NODE      18298   DOF 11
 LARGEST INCREMENT OF TEMP.         7.290E-03   AT NODE         61   DOF 11
 LARGEST CORRECTION TO TEMP.        1.442E-03   AT NODE      18238   DOF 11
          HEAT FLUX EQUILIBRIUM NOT ACHIEVED WITHIN TOLERANCE.
 
	UNSYMMETRIC NEW DIRECT SPARSE SOLVER RUNNING ON
 	1 HOST x 1 MPI RANK PER HOST x 1 THREAD PER RANK
        NUMBER OF EQUATIONS:  55023
        NUMBER OF RHS:        1
        NUMBER OF FLOPS:      1.858e+09
        SOLVER ELAPSED TIME:  130ms

               CONVERGENCE CHECKS FOR EQUILIBRIUM ITERATION     2


 AVERAGE FORCE                      5.007E-09   TIME AVG. FORCE       1.000E-02
 LARGEST SCALED RESIDUAL FORCE     -8.725E-15   AT NODE      13471   DOF  1
  CORRESPONDING RESIDUAL FORCE     -8.725E-15
 LARGEST INCREMENT OF DISP.         8.748E-08   AT NODE      18301   DOF  2
 LARGEST CORRECTION TO DISP.       -2.137E-15   AT NODE      14397   DOF  2
          THERE IS ZERO FORCE     EVERYWHERE
 

 ***WARNING: THERE IS ZERO FORCE EVERYWHERE IN THE MODEL BASED ON THE DEFAULT 
             CRITERION. PLEASE CHECK THE VALUE OF THE AVERAGE FORCE DURING THE 
             CURRENT ITERATION TO VERIFY THAT THE FORCE IS SMALL ENOUGH TO BE 
             TREATED AS ZERO. IF NOT, PLEASE USE THE SOLUTION CONTROLS TO RESET 
             THE CRITERION FOR ZERO FORCE.

 AVERAGE HEAT FLUX                  1.485E-08   TIME AVG. HEAT FLUX   6.447E-08
 LARGEST RESIDUAL HEAT FLUX         6.344E-10   AT NODE      18298   DOF 11
 LARGEST INCREMENT OF TEMP.         7.290E-03   AT NODE         61   DOF 11
 LARGEST CORRECTION TO TEMP.        5.286E-05   AT NODE      18298   DOF 11
          HEAT FLUX EQUILIBRIUM NOT ACHIEVED WITHIN TOLERANCE.
 
	UNSYMMETRIC NEW DIRECT SPARSE SOLVER RUNNING ON
 	1 HOST x 1 MPI RANK PER HOST x 1 THREAD PER RANK
        NUMBER OF EQUATIONS:  55023
        NUMBER OF RHS:        1
        NUMBER OF FLOPS:      1.858e+09
        SOLVER ELAPSED TIME:  136ms

               CONVERGENCE CHECKS FOR EQUILIBRIUM ITERATION     3


 AVERAGE FORCE                      5.007E-09   TIME AVG. FORCE       1.000E-02
 LARGEST SCALED RESIDUAL FORCE      9.214E-15   AT NODE      13538   DOF  1
  CORRESPONDING RESIDUAL FORCE      9.214E-15
 LARGEST INCREMENT OF DISP.         8.748E-08   AT NODE      18301   DOF  2
 LARGEST CORRECTION TO DISP.       -1.735E-15   AT NODE      13244   DOF  1
          THERE IS ZERO FORCE     EVERYWHERE
 

 ***WARNING: THERE IS ZERO FORCE EVERYWHERE IN THE MODEL BASED ON THE DEFAULT 
             CRITERION. PLEASE CHECK THE VALUE OF THE AVERAGE FORCE DURING THE 
             CURRENT ITERATION TO VERIFY THAT THE FORCE IS SMALL ENOUGH TO BE 
             TREATED AS ZERO. IF NOT, PLEASE USE THE SOLUTION CONTROLS TO RESET 
             THE CRITERION FOR ZERO FORCE.

 AVERAGE HEAT FLUX                  1.485E-08   TIME AVG. HEAT FLUX   6.447E-08
 LARGEST RESIDUAL HEAT FLUX         2.102E-13   AT NODE      18298   DOF 11
 LARGEST INCREMENT OF TEMP.         7.290E-03   AT NODE         61   DOF 11
 LARGEST CORRECTION TO TEMP.        8.459E-07   AT NODE      18298   DOF 11
          THE HEAT FLUX EQUILIBRIUM EQUATIONS HAVE CONVERGED

 MAXIMUM NON-PRESCRIBED INCREMENT IN TEMPERATURE IS   2.079E-03
          TIME INCREMENT MAY NOW INCREASE TO    8.333E-06

 ITERATION SUMMARY FOR THE INCREMENT:   3 TOTAL ITERATIONS, OF WHICH
   0 ARE SEVERE DISCONTINUITY ITERATIONS AND  3 ARE EQUILIBRIUM ITERATIONS.

 TIME INCREMENT COMPLETED  7.290E-06,  FRACTION OF STEP COMPLETED  1.030E-03
 STEP TIME COMPLETED       2.060E-05,  TOTAL TIME COMPLETED        2.060E-05


  INCREMENT    16 STARTS. ATTEMPT NUMBER  1, TIME INCREMENT  8.333E-06
 
	UNSYMMETRIC NEW DIRECT SPARSE SOLVER RUNNING ON
 	1 HOST x 1 MPI RANK PER HOST x 1 THREAD PER RANK
        NUMBER OF EQUATIONS:  55023
        NUMBER OF RHS:        1
        NUMBER OF FLOPS:      1.858e+09
        SOLVER ELAPSED TIME:  129ms

               CONVERGENCE CHECKS FOR EQUILIBRIUM ITERATION     1


 AVERAGE FORCE                      4.620E-09   TIME AVG. FORCE       1.000E-02
 LARGEST SCALED RESIDUAL FORCE     -8.526E-15   AT NODE      13414   DOF  1
  CORRESPONDING RESIDUAL FORCE     -8.526E-15
 LARGEST INCREMENT OF DISP.         1.000E-07   AT NODE      18301   DOF  2
 LARGEST CORRECTION TO DISP.        7.633E-14   AT NODE      13542   DOF  1
          THERE IS ZERO FORCE     EVERYWHERE
 

 ***WARNING: THERE IS ZERO FORCE EVERYWHERE IN THE MODEL BASED ON THE DEFAULT 
             CRITERION. PLEASE CHECK THE VALUE OF THE AVERAGE FORCE DURING THE 
             CURRENT ITERATION TO VERIFY THAT THE FORCE IS SMALL ENOUGH TO BE 
             TREATED AS ZERO. IF NOT, PLEASE USE THE SOLUTION CONTROLS TO RESET 
             THE CRITERION FOR ZERO FORCE.

 AVERAGE HEAT FLUX                  1.836E-08   TIME AVG. HEAT FLUX   6.159E-08
 LARGEST RESIDUAL HEAT FLUX         1.354E-08   AT NODE      11101   DOF 11
 LARGEST INCREMENT OF TEMP.         8.333E-03   AT NODE         61   DOF 11
 LARGEST CORRECTION TO TEMP.        4.686E-04   AT NODE      18296   DOF 11
          HEAT FLUX EQUILIBRIUM NOT ACHIEVED WITHIN TOLERANCE.
 
	UNSYMMETRIC NEW DIRECT SPARSE SOLVER RUNNING ON
 	1 HOST x 1 MPI RANK PER HOST x 1 THREAD PER RANK
        NUMBER OF EQUATIONS:  55023
        NUMBER OF RHS:        1
        NUMBER OF FLOPS:      1.858e+09
        SOLVER ELAPSED TIME:  131ms

               CONVERGENCE CHECKS FOR EQUILIBRIUM ITERATION     2


 AVERAGE FORCE                      4.620E-09   TIME AVG. FORCE       1.000E-02
 LARGEST SCALED RESIDUAL FORCE      7.947E-15   AT NODE      13456   DOF  1
  CORRESPONDING RESIDUAL FORCE      7.947E-15
 LARGEST INCREMENT OF DISP.         1.000E-07   AT NODE      18301   DOF  2
 LARGEST CORRECTION TO DISP.        2.067E-15   AT NODE      12201   DOF  2
          THERE IS ZERO FORCE     EVERYWHERE
 

 ***WARNING: THERE IS ZERO FORCE EVERYWHERE IN THE MODEL BASED ON THE DEFAULT 
             CRITERION. PLEASE CHECK THE VALUE OF THE AVERAGE FORCE DURING THE 
             CURRENT ITERATION TO VERIFY THAT THE FORCE IS SMALL ENOUGH TO BE 
             TREATED AS ZERO. IF NOT, PLEASE USE THE SOLUTION CONTROLS TO RESET 
             THE CRITERION FOR ZERO FORCE.

 AVERAGE HEAT FLUX                  1.855E-08   TIME AVG. HEAT FLUX   6.160E-08
 LARGEST RESIDUAL HEAT FLUX         1.463E-10   AT NODE      11100   DOF 11
 LARGEST INCREMENT OF TEMP.         8.333E-03   AT NODE         61   DOF 11
 LARGEST CORRECTION TO TEMP.        5.172E-05   AT NODE         60   DOF 11
          THE HEAT FLUX EQUILIBRIUM EQUATIONS HAVE CONVERGED

 MAXIMUM NON-PRESCRIBED INCREMENT IN TEMPERATURE IS   2.580E-03

 ITERATION SUMMARY FOR THE INCREMENT:   2 TOTAL ITERATIONS, OF WHICH
   0 ARE SEVERE DISCONTINUITY ITERATIONS AND  2 ARE EQUILIBRIUM ITERATIONS.

 TIME INCREMENT COMPLETED  8.333E-06,  FRACTION OF STEP COMPLETED  1.447E-03
 STEP TIME COMPLETED       2.893E-05,  TOTAL TIME COMPLETED        2.893E-05


  INCREMENT    17 STARTS. ATTEMPT NUMBER  1, TIME INCREMENT  8.333E-06
 
	UNSYMMETRIC NEW DIRECT SPARSE SOLVER RUNNING ON
 	1 HOST x 1 MPI RANK PER HOST x 1 THREAD PER RANK
        NUMBER OF EQUATIONS:  55023
        NUMBER OF RHS:        1
        NUMBER OF FLOPS:      1.858e+09
        SOLVER ELAPSED TIME:  131ms

               CONVERGENCE CHECKS FOR EQUILIBRIUM ITERATION     1


 AVERAGE FORCE                      4.233E-09   TIME AVG. FORCE       1.000E-02
 LARGEST SCALED RESIDUAL FORCE      7.655E-15   AT NODE      13450   DOF  1
  CORRESPONDING RESIDUAL FORCE      7.655E-15
 LARGEST INCREMENT OF DISP.         1.000E-07   AT NODE      18301   DOF  2
 LARGEST CORRECTION TO DISP.        8.208E-14   AT NODE      13420   DOF  1
          THERE IS ZERO FORCE     EVERYWHERE
 

 ***WARNING: THERE IS ZERO FORCE EVERYWHERE IN THE MODEL BASED ON THE DEFAULT 
             CRITERION. PLEASE CHECK THE VALUE OF THE AVERAGE FORCE DURING THE 
             CURRENT ITERATION TO VERIFY THAT THE FORCE IS SMALL ENOUGH TO BE 
             TREATED AS ZERO. IF NOT, PLEASE USE THE SOLUTION CONTROLS TO RESET 
             THE CRITERION FOR ZERO FORCE.

 AVERAGE HEAT FLUX                  2.034E-08   TIME AVG. HEAT FLUX   5.917E-08
 LARGEST RESIDUAL HEAT FLUX         2.178E-08   AT NODE      11100   DOF 11
 LARGEST INCREMENT OF TEMP.         8.333E-03   AT NODE         61   DOF 11
 LARGEST CORRECTION TO TEMP.        6.427E-04   AT NODE        974   DOF 11
          HEAT FLUX EQUILIBRIUM NOT ACHIEVED WITHIN TOLERANCE.
 
	UNSYMMETRIC NEW DIRECT SPARSE SOLVER RUNNING ON
 	1 HOST x 1 MPI RANK PER HOST x 1 THREAD PER RANK
        NUMBER OF EQUATIONS:  55023
        NUMBER OF RHS:        1
        NUMBER OF FLOPS:      1.858e+09
        SOLVER ELAPSED TIME:  128ms

               CONVERGENCE CHECKS FOR EQUILIBRIUM ITERATION     2


 AVERAGE FORCE                      4.233E-09   TIME AVG. FORCE       1.000E-02
 LARGEST SCALED RESIDUAL FORCE     -9.129E-15   AT NODE      13511   DOF  1
  CORRESPONDING RESIDUAL FORCE     -9.129E-15
 LARGEST INCREMENT OF DISP.         1.000E-07   AT NODE      18301   DOF  2
 LARGEST CORRECTION TO DISP.        2.048E-15   AT NODE      12262   DOF  2
          THERE IS ZERO FORCE     EVERYWHERE
 

 ***WARNING: THERE IS ZERO FORCE EVERYWHERE IN THE MODEL BASED ON THE DEFAULT 
             CRITERION. PLEASE CHECK THE VALUE OF THE AVERAGE FORCE DURING THE 
             CURRENT ITERATION TO VERIFY THAT THE FORCE IS SMALL ENOUGH TO BE 
             TREATED AS ZERO. IF NOT, PLEASE USE THE SOLUTION CONTROLS TO RESET 
             THE CRITERION FOR ZERO FORCE.

 AVERAGE HEAT FLUX                  2.045E-08   TIME AVG. HEAT FLUX   5.918E-08
 LARGEST RESIDUAL HEAT FLUX         3.439E-10   AT NODE      11100   DOF 11
 LARGEST INCREMENT OF TEMP.         8.333E-03   AT NODE         61   DOF 11
 LARGEST CORRECTION TO TEMP.        1.297E-04   AT NODE         60   DOF 11
          HEAT FLUX EQUILIBRIUM NOT ACHIEVED WITHIN TOLERANCE.
 
	UNSYMMETRIC NEW DIRECT SPARSE SOLVER RUNNING ON
 	1 HOST x 1 MPI RANK PER HOST x 1 THREAD PER RANK
        NUMBER OF EQUATIONS:  55023
        NUMBER OF RHS:        1
        NUMBER OF FLOPS:      1.858e+09
        SOLVER ELAPSED TIME:  138ms

               CONVERGENCE CHECKS FOR EQUILIBRIUM ITERATION     3


 AVERAGE FORCE                      4.233E-09   TIME AVG. FORCE       1.000E-02
 LARGEST SCALED RESIDUAL FORCE      8.285E-15   AT NODE      13468   DOF  1
  CORRESPONDING RESIDUAL FORCE      8.285E-15
 LARGEST INCREMENT OF DISP.         1.000E-07   AT NODE      18301   DOF  2
 LARGEST CORRECTION TO DISP.       -1.697E-15   AT NODE      12998   DOF  1
          THERE IS ZERO FORCE     EVERYWHERE
 

 ***WARNING: THERE IS ZERO FORCE EVERYWHERE IN THE MODEL BASED ON THE DEFAULT 
             CRITERION. PLEASE CHECK THE VALUE OF THE AVERAGE FORCE DURING THE 
             CURRENT ITERATION TO VERIFY THAT THE FORCE IS SMALL ENOUGH TO BE 
             TREATED AS ZERO. IF NOT, PLEASE USE THE SOLUTION CONTROLS TO RESET 
             THE CRITERION FOR ZERO FORCE.

 AVERAGE HEAT FLUX                  2.045E-08   TIME AVG. HEAT FLUX   5.918E-08
 LARGEST RESIDUAL HEAT FLUX         1.203E-13   AT NODE      11100   DOF 11
 LARGEST INCREMENT OF TEMP.         8.333E-03   AT NODE         61   DOF 11
 LARGEST CORRECTION TO TEMP.        2.350E-06   AT NODE         60   DOF 11
          THE HEAT FLUX EQUILIBRIUM EQUATIONS HAVE CONVERGED

 MAXIMUM NON-PRESCRIBED INCREMENT IN TEMPERATURE IS   3.241E-03

 ITERATION SUMMARY FOR THE INCREMENT:   3 TOTAL ITERATIONS, OF WHICH
   0 ARE SEVERE DISCONTINUITY ITERATIONS AND  3 ARE EQUILIBRIUM ITERATIONS.

 TIME INCREMENT COMPLETED  8.333E-06,  FRACTION OF STEP COMPLETED  1.863E-03
 STEP TIME COMPLETED       3.727E-05,  TOTAL TIME COMPLETED        3.727E-05


  INCREMENT    18 STARTS. ATTEMPT NUMBER  1, TIME INCREMENT  8.333E-06
 
	UNSYMMETRIC NEW DIRECT SPARSE SOLVER RUNNING ON
 	1 HOST x 1 MPI RANK PER HOST x 1 THREAD PER RANK
        NUMBER OF EQUATIONS:  55023
        NUMBER OF RHS:        1
        NUMBER OF FLOPS:      1.858e+09
        SOLVER ELAPSED TIME:  134ms

               CONVERGENCE CHECKS FOR EQUILIBRIUM ITERATION     1


 AVERAGE FORCE                      3.846E-09   TIME AVG. FORCE       1.000E-02
 LARGEST SCALED RESIDUAL FORCE      8.288E-15   AT NODE      13448   DOF  1
  CORRESPONDING RESIDUAL FORCE      8.288E-15
 LARGEST INCREMENT OF DISP.         1.000E-07   AT NODE      18301   DOF  2
 LARGEST CORRECTION TO DISP.        8.143E-14   AT NODE      13542   DOF  1
          THERE IS ZERO FORCE     EVERYWHERE
 

 ***WARNING: THERE IS ZERO FORCE EVERYWHERE IN THE MODEL BASED ON THE DEFAULT 
             CRITERION. PLEASE CHECK THE VALUE OF THE AVERAGE FORCE DURING THE 
             CURRENT ITERATION TO VERIFY THAT THE FORCE IS SMALL ENOUGH TO BE 
             TREATED AS ZERO. IF NOT, PLEASE USE THE SOLUTION CONTROLS TO RESET 
             THE CRITERION FOR ZERO FORCE.

 AVERAGE HEAT FLUX                  1.805E-08   TIME AVG. HEAT FLUX   5.690E-08
 LARGEST RESIDUAL HEAT FLUX         3.024E-08   AT NODE      11100   DOF 11
 LARGEST INCREMENT OF TEMP.         8.333E-03   AT NODE         61   DOF 11
 LARGEST CORRECTION TO TEMP.        1.767E-03   AT NODE         60   DOF 11
          HEAT FLUX EQUILIBRIUM NOT ACHIEVED WITHIN TOLERANCE.
 
	UNSYMMETRIC NEW DIRECT SPARSE SOLVER RUNNING ON
 	1 HOST x 1 MPI RANK PER HOST x 1 THREAD PER RANK
        NUMBER OF EQUATIONS:  55023
        NUMBER OF RHS:        1
        NUMBER OF FLOPS:      1.858e+09
        SOLVER ELAPSED TIME:  135ms

               CONVERGENCE CHECKS FOR EQUILIBRIUM ITERATION     2


 AVERAGE FORCE                      3.846E-09   TIME AVG. FORCE       1.000E-02
 LARGEST SCALED RESIDUAL FORCE      8.017E-15   AT NODE      13404   DOF  1
  CORRESPONDING RESIDUAL FORCE      8.017E-15
 LARGEST INCREMENT OF DISP.         1.000E-07   AT NODE      18301   DOF  2
 LARGEST CORRECTION TO DISP.       -1.595E-15   AT NODE      12938   DOF  1
          THERE IS ZERO FORCE     EVERYWHERE
 

 ***WARNING: THERE IS ZERO FORCE EVERYWHERE IN THE MODEL BASED ON THE DEFAULT 
             CRITERION. PLEASE CHECK THE VALUE OF THE AVERAGE FORCE DURING THE 
             CURRENT ITERATION TO VERIFY THAT THE FORCE IS SMALL ENOUGH TO BE 
             TREATED AS ZERO. IF NOT, PLEASE USE THE SOLUTION CONTROLS TO RESET 
             THE CRITERION FOR ZERO FORCE.

 AVERAGE HEAT FLUX                  1.853E-08   TIME AVG. HEAT FLUX   5.692E-08
 LARGEST RESIDUAL HEAT FLUX         6.357E-10   AT NODE      11100   DOF 11
 LARGEST INCREMENT OF TEMP.         8.333E-03   AT NODE         61   DOF 11
 LARGEST CORRECTION TO TEMP.        3.279E-04   AT NODE         60   DOF 11
          HEAT FLUX EQUILIBRIUM NOT ACHIEVED WITHIN TOLERANCE.
 
	UNSYMMETRIC NEW DIRECT SPARSE SOLVER RUNNING ON
 	1 HOST x 1 MPI RANK PER HOST x 1 THREAD PER RANK
        NUMBER OF EQUATIONS:  55023
        NUMBER OF RHS:        1
        NUMBER OF FLOPS:      1.858e+09
        SOLVER ELAPSED TIME:  135ms

               CONVERGENCE CHECKS FOR EQUILIBRIUM ITERATION     3


 AVERAGE FORCE                      3.846E-09   TIME AVG. FORCE       1.000E-02
 LARGEST SCALED RESIDUAL FORCE     -8.707E-15   AT NODE      13468   DOF  1
  CORRESPONDING RESIDUAL FORCE     -8.707E-15
 LARGEST INCREMENT OF DISP.         1.000E-07   AT NODE      18301   DOF  2
 LARGEST CORRECTION TO DISP.       -1.482E-15   AT NODE      14458   DOF  2
          THERE IS ZERO FORCE     EVERYWHERE
 

 ***WARNING: THERE IS ZERO FORCE EVERYWHERE IN THE MODEL BASED ON THE DEFAULT 
             CRITERION. PLEASE CHECK THE VALUE OF THE AVERAGE FORCE DURING THE 
             CURRENT ITERATION TO VERIFY THAT THE FORCE IS SMALL ENOUGH TO BE 
             TREATED AS ZERO. IF NOT, PLEASE USE THE SOLUTION CONTROLS TO RESET 
             THE CRITERION FOR ZERO FORCE.

 AVERAGE HEAT FLUX                  1.853E-08   TIME AVG. HEAT FLUX   5.692E-08
 LARGEST RESIDUAL HEAT FLUX         3.077E-13   AT NODE      11100   DOF 11
 LARGEST INCREMENT OF TEMP.         8.333E-03   AT NODE         61   DOF 11
 LARGEST CORRECTION TO TEMP.        5.916E-06   AT NODE       1707   DOF 11
          THE HEAT FLUX EQUILIBRIUM EQUATIONS HAVE CONVERGED

 MAXIMUM NON-PRESCRIBED INCREMENT IN TEMPERATURE IS   5.342E-03

 ITERATION SUMMARY FOR THE INCREMENT:   3 TOTAL ITERATIONS, OF WHICH
   0 ARE SEVERE DISCONTINUITY ITERATIONS AND  3 ARE EQUILIBRIUM ITERATIONS.

 TIME INCREMENT COMPLETED  8.333E-06,  FRACTION OF STEP COMPLETED  2.280E-03
 STEP TIME COMPLETED       4.560E-05,  TOTAL TIME COMPLETED        4.560E-05


  INCREMENT    19 STARTS. ATTEMPT NUMBER  1, TIME INCREMENT  8.333E-06
 
	UNSYMMETRIC NEW DIRECT SPARSE SOLVER RUNNING ON
 	1 HOST x 1 MPI RANK PER HOST x 1 THREAD PER RANK
        NUMBER OF EQUATIONS:  55023
        NUMBER OF RHS:        1
        NUMBER OF FLOPS:      1.858e+09
        SOLVER ELAPSED TIME:  142ms

               CONVERGENCE CHECKS FOR EQUILIBRIUM ITERATION     1


 AVERAGE FORCE                      3.459E-09   TIME AVG. FORCE       1.000E-02
 LARGEST SCALED RESIDUAL FORCE     -8.618E-15   AT NODE      13452   DOF  1
  CORRESPONDING RESIDUAL FORCE     -8.618E-15
 LARGEST INCREMENT OF DISP.         1.000E-07   AT NODE      18301   DOF  2
 LARGEST CORRECTION TO DISP.        8.150E-14   AT NODE      13359   DOF  1
          THERE IS ZERO FORCE     EVERYWHERE
 

 ***WARNING: THERE IS ZERO FORCE EVERYWHERE IN THE MODEL BASED ON THE DEFAULT 
             CRITERION. PLEASE CHECK THE VALUE OF THE AVERAGE FORCE DURING THE 
             CURRENT ITERATION TO VERIFY THAT THE FORCE IS SMALL ENOUGH TO BE 
             TREATED AS ZERO. IF NOT, PLEASE USE THE SOLUTION CONTROLS TO RESET 
             THE CRITERION FOR ZERO FORCE.

 AVERAGE HEAT FLUX                  1.937E-08   TIME AVG. HEAT FLUX   5.495E-08
 LARGEST RESIDUAL HEAT FLUX         2.623E-08   AT NODE      18298   DOF 11
 LARGEST INCREMENT OF TEMP.         8.333E-03   AT NODE         61   DOF 11
 LARGEST CORRECTION TO TEMP.        2.731E-03   AT NODE      11467   DOF 11
          HEAT FLUX EQUILIBRIUM NOT ACHIEVED WITHIN TOLERANCE.
 
	UNSYMMETRIC NEW DIRECT SPARSE SOLVER RUNNING ON
 	1 HOST x 1 MPI RANK PER HOST x 1 THREAD PER RANK
        NUMBER OF EQUATIONS:  55023
        NUMBER OF RHS:        1
        NUMBER OF FLOPS:      1.858e+09
        SOLVER ELAPSED TIME:  128ms

               CONVERGENCE CHECKS FOR EQUILIBRIUM ITERATION     2


 AVERAGE FORCE                      3.459E-09   TIME AVG. FORCE       1.000E-02
 LARGEST SCALED RESIDUAL FORCE     -8.213E-15   AT NODE      13461   DOF  1
  CORRESPONDING RESIDUAL FORCE     -8.213E-15
 LARGEST INCREMENT OF DISP.         1.000E-07   AT NODE      18301   DOF  2
 LARGEST CORRECTION TO DISP.        1.739E-15   AT NODE      13428   DOF  1
          THERE IS ZERO FORCE     EVERYWHERE
 

 ***WARNING: THERE IS ZERO FORCE EVERYWHERE IN THE MODEL BASED ON THE DEFAULT 
             CRITERION. PLEASE CHECK THE VALUE OF THE AVERAGE FORCE DURING THE 
             CURRENT ITERATION TO VERIFY THAT THE FORCE IS SMALL ENOUGH TO BE 
             TREATED AS ZERO. IF NOT, PLEASE USE THE SOLUTION CONTROLS TO RESET 
             THE CRITERION FOR ZERO FORCE.

 AVERAGE HEAT FLUX                  2.006E-08   TIME AVG. HEAT FLUX   5.498E-08
 LARGEST RESIDUAL HEAT FLUX         4.470E-10   AT NODE      18298   DOF 11
 LARGEST INCREMENT OF TEMP.         8.333E-03   AT NODE         61   DOF 11
 LARGEST CORRECTION TO TEMP.        3.119E-04   AT NODE      18299   DOF 11
          HEAT FLUX EQUILIBRIUM NOT ACHIEVED WITHIN TOLERANCE.
 
	UNSYMMETRIC NEW DIRECT SPARSE SOLVER RUNNING ON
 	1 HOST x 1 MPI RANK PER HOST x 1 THREAD PER RANK
        NUMBER OF EQUATIONS:  55023
        NUMBER OF RHS:        1
        NUMBER OF FLOPS:      1.858e+09
        SOLVER ELAPSED TIME:  131ms

               CONVERGENCE CHECKS FOR EQUILIBRIUM ITERATION     3


 AVERAGE FORCE                      3.459E-09   TIME AVG. FORCE       1.000E-02
 LARGEST SCALED RESIDUAL FORCE      1.104E-14   AT NODE      13477   DOF  1
  CORRESPONDING RESIDUAL FORCE      1.104E-14
 LARGEST INCREMENT OF DISP.         1.000E-07   AT NODE      18301   DOF  2
 LARGEST CORRECTION TO DISP.       -1.552E-15   AT NODE      12753   DOF  1
          THERE IS ZERO FORCE     EVERYWHERE
 

 ***WARNING: THERE IS ZERO FORCE EVERYWHERE IN THE MODEL BASED ON THE DEFAULT 
             CRITERION. PLEASE CHECK THE VALUE OF THE AVERAGE FORCE DURING THE 
             CURRENT ITERATION TO VERIFY THAT THE FORCE IS SMALL ENOUGH TO BE 
             TREATED AS ZERO. IF NOT, PLEASE USE THE SOLUTION CONTROLS TO RESET 
             THE CRITERION FOR ZERO FORCE.

 AVERAGE HEAT FLUX                  2.007E-08   TIME AVG. HEAT FLUX   5.498E-08
 LARGEST RESIDUAL HEAT FLUX         1.518E-13   AT NODE      18298   DOF 11
 LARGEST INCREMENT OF TEMP.         8.333E-03   AT NODE         61   DOF 11
 LARGEST CORRECTION TO TEMP.        2.896E-06   AT NODE      18360   DOF 11
          THE HEAT FLUX EQUILIBRIUM EQUATIONS HAVE CONVERGED

 MAXIMUM NON-PRESCRIBED INCREMENT IN TEMPERATURE IS   8.252E-03

 ITERATION SUMMARY FOR THE INCREMENT:   3 TOTAL ITERATIONS, OF WHICH
   0 ARE SEVERE DISCONTINUITY ITERATIONS AND  3 ARE EQUILIBRIUM ITERATIONS.

 TIME INCREMENT COMPLETED  8.333E-06,  FRACTION OF STEP COMPLETED  2.697E-03
 STEP TIME COMPLETED       5.393E-05,  TOTAL TIME COMPLETED        5.393E-05


  INCREMENT    20 STARTS. ATTEMPT NUMBER  1, TIME INCREMENT  8.333E-06
 
	UNSYMMETRIC NEW DIRECT SPARSE SOLVER RUNNING ON
 	1 HOST x 1 MPI RANK PER HOST x 1 THREAD PER RANK
        NUMBER OF EQUATIONS:  55023
        NUMBER OF RHS:        1
        NUMBER OF FLOPS:      1.858e+09
        SOLVER ELAPSED TIME:  127ms

               CONVERGENCE CHECKS FOR EQUILIBRIUM ITERATION     1


 AVERAGE FORCE                      3.797E-09   TIME AVG. FORCE       1.000E-02
 LARGEST SCALED RESIDUAL FORCE     -1.613E-14   AT NODE      13477   DOF  1
  CORRESPONDING RESIDUAL FORCE     -1.613E-14
 LARGEST INCREMENT OF DISP.         1.000E-07   AT NODE      18301   DOF  2
 LARGEST CORRECTION TO DISP.        8.207E-14   AT NODE      13481   DOF  1
          THERE IS ZERO FORCE     EVERYWHERE
 

 ***WARNING: THERE IS ZERO FORCE EVERYWHERE IN THE MODEL BASED ON THE DEFAULT 
             CRITERION. PLEASE CHECK THE VALUE OF THE AVERAGE FORCE DURING THE 
             CURRENT ITERATION TO VERIFY THAT THE FORCE IS SMALL ENOUGH TO BE 
             TREATED AS ZERO. IF NOT, PLEASE USE THE SOLUTION CONTROLS TO RESET 
             THE CRITERION FOR ZERO FORCE.

 AVERAGE HEAT FLUX                  2.470E-08   TIME AVG. HEAT FLUX   5.347E-08
 LARGEST RESIDUAL HEAT FLUX         1.751E-08   AT NODE      18297   DOF 11
 LARGEST INCREMENT OF TEMP.         8.678E-03   AT NODE      13541   DOF 11
 LARGEST CORRECTION TO TEMP.        1.766E-03   AT NODE      18360   DOF 11
          HEAT FLUX EQUILIBRIUM NOT ACHIEVED WITHIN TOLERANCE.
 
	UNSYMMETRIC NEW DIRECT SPARSE SOLVER RUNNING ON
 	1 HOST x 1 MPI RANK PER HOST x 1 THREAD PER RANK
        NUMBER OF EQUATIONS:  55023
        NUMBER OF RHS:        1
        NUMBER OF FLOPS:      1.858e+09
        SOLVER ELAPSED TIME:  138ms

               CONVERGENCE CHECKS FOR EQUILIBRIUM ITERATION     2


 AVERAGE FORCE                      3.797E-09   TIME AVG. FORCE       1.000E-02
 LARGEST SCALED RESIDUAL FORCE      1.253E-14   AT NODE      13414   DOF  1
  CORRESPONDING RESIDUAL FORCE      1.253E-14
 LARGEST INCREMENT OF DISP.         1.000E-07   AT NODE      18301   DOF  2
 LARGEST CORRECTION TO DISP.       -1.519E-15   AT NODE      13055   DOF  2
          THERE IS ZERO FORCE     EVERYWHERE
 

 ***WARNING: THERE IS ZERO FORCE EVERYWHERE IN THE MODEL BASED ON THE DEFAULT 
             CRITERION. PLEASE CHECK THE VALUE OF THE AVERAGE FORCE DURING THE 
             CURRENT ITERATION TO VERIFY THAT THE FORCE IS SMALL ENOUGH TO BE 
             TREATED AS ZERO. IF NOT, PLEASE USE THE SOLUTION CONTROLS TO RESET 
             THE CRITERION FOR ZERO FORCE.

 AVERAGE HEAT FLUX                  2.483E-08   TIME AVG. HEAT FLUX   5.348E-08
 LARGEST RESIDUAL HEAT FLUX         1.993E-10   AT NODE      18297   DOF 11
 LARGEST INCREMENT OF TEMP.         8.706E-03   AT NODE      13907   DOF 11
 LARGEST CORRECTION TO TEMP.        5.260E-05   AT NODE      18360   DOF 11
          THE HEAT FLUX EQUILIBRIUM EQUATIONS HAVE CONVERGED

 MAXIMUM NON-PRESCRIBED INCREMENT IN TEMPERATURE IS   8.706E-03

 ITERATION SUMMARY FOR THE INCREMENT:   2 TOTAL ITERATIONS, OF WHICH
   0 ARE SEVERE DISCONTINUITY ITERATIONS AND  2 ARE EQUILIBRIUM ITERATIONS.

 TIME INCREMENT COMPLETED  8.333E-06,  FRACTION OF STEP COMPLETED  3.113E-03
 STEP TIME COMPLETED       6.227E-05,  TOTAL TIME COMPLETED        6.227E-05


  INCREMENT    21 STARTS. ATTEMPT NUMBER  1, TIME INCREMENT  8.333E-06
 
	UNSYMMETRIC NEW DIRECT SPARSE SOLVER RUNNING ON
 	1 HOST x 1 MPI RANK PER HOST x 1 THREAD PER RANK
        NUMBER OF EQUATIONS:  55023
        NUMBER OF RHS:        1
        NUMBER OF FLOPS:      1.858e+09
        SOLVER ELAPSED TIME:  143ms

               CONVERGENCE CHECKS FOR EQUILIBRIUM ITERATION     1


 AVERAGE FORCE                      4.184E-09   TIME AVG. FORCE       1.000E-02
 LARGEST SCALED RESIDUAL FORCE     -1.275E-14   AT NODE      13475   DOF  1
  CORRESPONDING RESIDUAL FORCE     -1.275E-14
 LARGEST INCREMENT OF DISP.         1.000E-07   AT NODE      18301   DOF  2
 LARGEST CORRECTION TO DISP.        8.175E-14   AT NODE      13420   DOF  1
          THERE IS ZERO FORCE     EVERYWHERE
 

 ***WARNING: THERE IS ZERO FORCE EVERYWHERE IN THE MODEL BASED ON THE DEFAULT 
             CRITERION. PLEASE CHECK THE VALUE OF THE AVERAGE FORCE DURING THE 
             CURRENT ITERATION TO VERIFY THAT THE FORCE IS SMALL ENOUGH TO BE 
             TREATED AS ZERO. IF NOT, PLEASE USE THE SOLUTION CONTROLS TO RESET 
             THE CRITERION FOR ZERO FORCE.

 AVERAGE HEAT FLUX                  2.737E-08   TIME AVG. HEAT FLUX   5.223E-08
 LARGEST RESIDUAL HEAT FLUX         1.592E-08   AT NODE      11099   DOF 11
 LARGEST INCREMENT OF TEMP.         8.333E-03   AT NODE         61   DOF 11
 LARGEST CORRECTION TO TEMP.       -1.259E-03   AT NODE         60   DOF 11
          HEAT FLUX EQUILIBRIUM NOT ACHIEVED WITHIN TOLERANCE.
 
	UNSYMMETRIC NEW DIRECT SPARSE SOLVER RUNNING ON
 	1 HOST x 1 MPI RANK PER HOST x 1 THREAD PER RANK
        NUMBER OF EQUATIONS:  55023
        NUMBER OF RHS:        1
        NUMBER OF FLOPS:      1.858e+09
        SOLVER ELAPSED TIME:  148ms

               CONVERGENCE CHECKS FOR EQUILIBRIUM ITERATION     2


 AVERAGE FORCE                      4.184E-09   TIME AVG. FORCE       1.000E-02
 LARGEST SCALED RESIDUAL FORCE     -9.515E-15   AT NODE      13538   DOF  1
  CORRESPONDING RESIDUAL FORCE     -9.515E-15
 LARGEST INCREMENT OF DISP.         1.000E-07   AT NODE      18301   DOF  2
 LARGEST CORRECTION TO DISP.       -2.465E-15   AT NODE      13673   DOF  1
          THERE IS ZERO FORCE     EVERYWHERE
 

 ***WARNING: THERE IS ZERO FORCE EVERYWHERE IN THE MODEL BASED ON THE DEFAULT 
             CRITERION. PLEASE CHECK THE VALUE OF THE AVERAGE FORCE DURING THE 
             CURRENT ITERATION TO VERIFY THAT THE FORCE IS SMALL ENOUGH TO BE 
             TREATED AS ZERO. IF NOT, PLEASE USE THE SOLUTION CONTROLS TO RESET 
             THE CRITERION FOR ZERO FORCE.

 AVERAGE HEAT FLUX                  2.746E-08   TIME AVG. HEAT FLUX   5.224E-08
 LARGEST RESIDUAL HEAT FLUX         2.031E-10   AT NODE      11099   DOF 11
 LARGEST INCREMENT OF TEMP.         8.333E-03   AT NODE         61   DOF 11
 LARGEST CORRECTION TO TEMP.        9.349E-05   AT NODE         59   DOF 11
 ESTIMATE OF TEMP.    CORRECTION    1.192E-06
 HEAT FLUX EQUILIB. ACCEPTED BASED ON SMALL RESIDUAL AND ESTIMATED CORRECTION

 MAXIMUM NON-PRESCRIBED INCREMENT IN TEMPERATURE IS   7.837E-03

 ITERATION SUMMARY FOR THE INCREMENT:   2 TOTAL ITERATIONS, OF WHICH
   0 ARE SEVERE DISCONTINUITY ITERATIONS AND  2 ARE EQUILIBRIUM ITERATIONS.

 TIME INCREMENT COMPLETED  8.333E-06,  FRACTION OF STEP COMPLETED  3.530E-03
 STEP TIME COMPLETED       7.060E-05,  TOTAL TIME COMPLETED        7.060E-05


  INCREMENT    22 STARTS. ATTEMPT NUMBER  1, TIME INCREMENT  8.333E-06
 
	UNSYMMETRIC NEW DIRECT SPARSE SOLVER RUNNING ON
 	1 HOST x 1 MPI RANK PER HOST x 1 THREAD PER RANK
        NUMBER OF EQUATIONS:  55023
        NUMBER OF RHS:        1
        NUMBER OF FLOPS:      1.858e+09
        SOLVER ELAPSED TIME:  136ms

               CONVERGENCE CHECKS FOR EQUILIBRIUM ITERATION     1


 AVERAGE FORCE                      4.571E-09   TIME AVG. FORCE       1.000E-02
 LARGEST SCALED RESIDUAL FORCE      9.413E-15   AT NODE      13459   DOF  1
  CORRESPONDING RESIDUAL FORCE      9.413E-15
 LARGEST INCREMENT OF DISP.         1.000E-07   AT NODE      18301   DOF  2
 LARGEST CORRECTION TO DISP.        8.206E-14   AT NODE      13542   DOF  1
          THERE IS ZERO FORCE     EVERYWHERE
 

 ***WARNING: THERE IS ZERO FORCE EVERYWHERE IN THE MODEL BASED ON THE DEFAULT 
             CRITERION. PLEASE CHECK THE VALUE OF THE AVERAGE FORCE DURING THE 
             CURRENT ITERATION TO VERIFY THAT THE FORCE IS SMALL ENOUGH TO BE 
             TREATED AS ZERO. IF NOT, PLEASE USE THE SOLUTION CONTROLS TO RESET 
             THE CRITERION FOR ZERO FORCE.

 AVERAGE HEAT FLUX                  2.450E-08   TIME AVG. HEAT FLUX   5.098E-08
 LARGEST RESIDUAL HEAT FLUX         2.173E-08   AT NODE      11099   DOF 11
 LARGEST INCREMENT OF TEMP.         8.333E-03   AT NODE         61   DOF 11
 LARGEST CORRECTION TO TEMP.        1.188E-03   AT NODE         59   DOF 11
          HEAT FLUX EQUILIBRIUM NOT ACHIEVED WITHIN TOLERANCE.
 
	UNSYMMETRIC NEW DIRECT SPARSE SOLVER RUNNING ON
 	1 HOST x 1 MPI RANK PER HOST x 1 THREAD PER RANK
        NUMBER OF EQUATIONS:  55023
        NUMBER OF RHS:        1
        NUMBER OF FLOPS:      1.858e+09
        SOLVER ELAPSED TIME:  134ms

               CONVERGENCE CHECKS FOR EQUILIBRIUM ITERATION     2


 AVERAGE FORCE                      4.571E-09   TIME AVG. FORCE       1.000E-02
 LARGEST SCALED RESIDUAL FORCE      9.962E-15   AT NODE      13415   DOF  1
  CORRESPONDING RESIDUAL FORCE      9.962E-15
 LARGEST INCREMENT OF DISP.         1.000E-07   AT NODE      18301   DOF  2
 LARGEST CORRECTION TO DISP.        1.723E-15   AT NODE      13244   DOF  1
          THERE IS ZERO FORCE     EVERYWHERE
 

 ***WARNING: THERE IS ZERO FORCE EVERYWHERE IN THE MODEL BASED ON THE DEFAULT 
             CRITERION. PLEASE CHECK THE VALUE OF THE AVERAGE FORCE DURING THE 
             CURRENT ITERATION TO VERIFY THAT THE FORCE IS SMALL ENOUGH TO BE 
             TREATED AS ZERO. IF NOT, PLEASE USE THE SOLUTION CONTROLS TO RESET 
             THE CRITERION FOR ZERO FORCE.

 AVERAGE HEAT FLUX                  2.451E-08   TIME AVG. HEAT FLUX   5.098E-08
 LARGEST RESIDUAL HEAT FLUX         3.559E-10   AT NODE      11099   DOF 11
 LARGEST INCREMENT OF TEMP.         8.333E-03   AT NODE         61   DOF 11
 LARGEST CORRECTION TO TEMP.        2.183E-04   AT NODE         59   DOF 11
          HEAT FLUX EQUILIBRIUM NOT ACHIEVED WITHIN TOLERANCE.
 
	UNSYMMETRIC NEW DIRECT SPARSE SOLVER RUNNING ON
 	1 HOST x 1 MPI RANK PER HOST x 1 THREAD PER RANK
[...]

 TIME INCREMENT COMPLETED  8.333E-06,  FRACTION OF STEP COMPLETED  0.117    
 STEP TIME COMPLETED       2.337E-03,  TOTAL TIME COMPLETED        2.337E-03


  INCREMENT   294 STARTS. ATTEMPT NUMBER  1, TIME INCREMENT  8.333E-06
 
	UNSYMMETRIC NEW DIRECT SPARSE SOLVER RUNNING ON
 	1 HOST x 1 MPI RANK PER HOST x 1 THREAD PER RANK
        NUMBER OF EQUATIONS:  55023
        NUMBER OF RHS:        1
        NUMBER OF FLOPS:      1.858e+09
        SOLVER ELAPSED TIME:  157ms

               CONVERGENCE CHECKS FOR EQUILIBRIUM ITERATION     1


 AVERAGE FORCE                      1.125E-07   TIME AVG. FORCE       1.077E-07
 LARGEST SCALED RESIDUAL FORCE     -1.113E-14   AT NODE      13476   DOF  1
  CORRESPONDING RESIDUAL FORCE     -1.113E-14
 LARGEST INCREMENT OF DISP.         1.000E-07   AT NODE      18301   DOF  2
 LARGEST CORRECTION TO DISP.        8.133E-14   AT NODE      13603   DOF  1
          THE FORCE     EQUILIBRIUM EQUATIONS HAVE CONVERGED

 AVERAGE HEAT FLUX                  4.136E-08   TIME AVG. HEAT FLUX   5.777E-08
 LARGEST RESIDUAL HEAT FLUX         1.864E-10   AT NODE      18256   DOF 11
 LARGEST INCREMENT OF TEMP.         1.956E-03   AT NODE         26   DOF 11
 LARGEST CORRECTION TO TEMP.        1.965E-04   AT NODE      11120   DOF 11
 ESTIMATE OF TEMP.    CORRECTION    3.882E-06
 HEAT FLUX EQUILIB. ACCEPTED BASED ON SMALL RESIDUAL AND ESTIMATED CORRECTION

 MAXIMUM NON-PRESCRIBED INCREMENT IN TEMPERATURE IS   1.956E-03

 ITERATION SUMMARY FOR THE INCREMENT:   1 TOTAL ITERATIONS, OF WHICH
   0 ARE SEVERE DISCONTINUITY ITERATIONS AND  1 ARE EQUILIBRIUM ITERATIONS.

 TIME INCREMENT COMPLETED  8.333E-06,  FRACTION OF STEP COMPLETED  0.117    
 STEP TIME COMPLETED       2.346E-03,  TOTAL TIME COMPLETED        2.346E-03


  INCREMENT   295 STARTS. ATTEMPT NUMBER  1, TIME INCREMENT  8.333E-06
 
	UNSYMMETRIC NEW DIRECT SPARSE SOLVER RUNNING ON
 	1 HOST x 1 MPI RANK PER HOST x 1 THREAD PER RANK
        NUMBER OF EQUATIONS:  55023
        NUMBER OF RHS:        1
        NUMBER OF FLOPS:      1.858e+09
        SOLVER ELAPSED TIME:  179ms

               CONVERGENCE CHECKS FOR EQUILIBRIUM ITERATION     1


 AVERAGE FORCE                      1.129E-07   TIME AVG. FORCE       1.079E-07
 LARGEST SCALED RESIDUAL FORCE     -8.974E-15   AT NODE      13450   DOF  1
  CORRESPONDING RESIDUAL FORCE     -8.974E-15
 LARGEST INCREMENT OF DISP.         1.000E-07   AT NODE      18301   DOF  2
 LARGEST CORRECTION TO DISP.        8.094E-14   AT NODE      18056   DOF  1
          THE FORCE     EQUILIBRIUM EQUATIONS HAVE CONVERGED

 AVERAGE HEAT FLUX                  4.110E-08   TIME AVG. HEAT FLUX   5.772E-08
 LARGEST RESIDUAL HEAT FLUX         1.643E-10   AT NODE      18256   DOF 11
 LARGEST INCREMENT OF TEMP.         1.950E-03   AT NODE         26   DOF 11
 LARGEST CORRECTION TO TEMP.        1.951E-04   AT NODE      18318   DOF 11
 ESTIMATE OF TEMP.    CORRECTION    3.573E-06
 HEAT FLUX EQUILIB. ACCEPTED BASED ON SMALL RESIDUAL AND ESTIMATED CORRECTION

 MAXIMUM NON-PRESCRIBED INCREMENT IN TEMPERATURE IS   1.950E-03

 ITERATION SUMMARY FOR THE INCREMENT:   1 TOTAL ITERATIONS, OF WHICH
   0 ARE SEVERE DISCONTINUITY ITERATIONS AND  1 ARE EQUILIBRIUM ITERATIONS.

 TIME INCREMENT COMPLETED  8.333E-06,  FRACTION OF STEP COMPLETED  0.118    
 STEP TIME COMPLETED       2.354E-03,  TOTAL TIME COMPLETED        2.354E-03


  INCREMENT   296 STARTS. ATTEMPT NUMBER  1, TIME INCREMENT  8.333E-06
 
	UNSYMMETRIC NEW DIRECT SPARSE SOLVER RUNNING ON
 	1 HOST x 1 MPI RANK PER HOST x 1 THREAD PER RANK
        NUMBER OF EQUATIONS:  55023
        NUMBER OF RHS:        1
        NUMBER OF FLOPS:      1.858e+09
        SOLVER ELAPSED TIME:  165ms

               CONVERGENCE CHECKS FOR EQUILIBRIUM ITERATION     1


 AVERAGE FORCE                      1.133E-07   TIME AVG. FORCE       1.081E-07
 LARGEST SCALED RESIDUAL FORCE      1.001E-14   AT NODE      13416   DOF  1
  CORRESPONDING RESIDUAL FORCE      1.001E-14
 LARGEST INCREMENT OF DISP.         1.000E-07   AT NODE      18301   DOF  2
 LARGEST CORRECTION TO DISP.        8.110E-14   AT NODE      14030   DOF  1
          THE FORCE     EQUILIBRIUM EQUATIONS HAVE CONVERGED

 AVERAGE HEAT FLUX                  4.137E-08   TIME AVG. HEAT FLUX   5.766E-08
 LARGEST RESIDUAL HEAT FLUX         1.412E-10   AT NODE      18256   DOF 11
 LARGEST INCREMENT OF TEMP.         1.944E-03   AT NODE         26   DOF 11
 LARGEST CORRECTION TO TEMP.        1.714E-04   AT NODE      18318   DOF 11
 ESTIMATE OF TEMP.    CORRECTION    2.912E-06
 HEAT FLUX EQUILIB. ACCEPTED BASED ON SMALL RESIDUAL AND ESTIMATED CORRECTION

 MAXIMUM NON-PRESCRIBED INCREMENT IN TEMPERATURE IS   1.944E-03

 ITERATION SUMMARY FOR THE INCREMENT:   1 TOTAL ITERATIONS, OF WHICH
   0 ARE SEVERE DISCONTINUITY ITERATIONS AND  1 ARE EQUILIBRIUM ITERATIONS.

 TIME INCREMENT COMPLETED  8.333E-06,  FRACTION OF STEP COMPLETED  0.118    
 STEP TIME COMPLETED       2.362E-03,  TOTAL TIME COMPLETED        2.362E-03


  INCREMENT   297 STARTS. ATTEMPT NUMBER  1, TIME INCREMENT  8.333E-06
 
	UNSYMMETRIC NEW DIRECT SPARSE SOLVER RUNNING ON
 	1 HOST x 1 MPI RANK PER HOST x 1 THREAD PER RANK
        NUMBER OF EQUATIONS:  55023
        NUMBER OF RHS:        1
        NUMBER OF FLOPS:      1.858e+09
        SOLVER ELAPSED TIME:  166ms

               CONVERGENCE CHECKS FOR EQUILIBRIUM ITERATION     1


 AVERAGE FORCE                      1.137E-07   TIME AVG. FORCE       1.083E-07
 LARGEST SCALED RESIDUAL FORCE     -8.005E-15   AT NODE      13507   DOF  1
  CORRESPONDING RESIDUAL FORCE     -8.005E-15
 LARGEST INCREMENT OF DISP.         1.000E-07   AT NODE      18301   DOF  2
 LARGEST CORRECTION TO DISP.        8.194E-14   AT NODE      13542   DOF  1
          THE FORCE     EQUILIBRIUM EQUATIONS HAVE CONVERGED

 AVERAGE HEAT FLUX                  4.114E-08   TIME AVG. HEAT FLUX   5.761E-08
 LARGEST RESIDUAL HEAT FLUX         1.352E-10   AT NODE      11058   DOF 11
 LARGEST INCREMENT OF TEMP.         1.940E-03   AT NODE         26   DOF 11
 LARGEST CORRECTION TO TEMP.        1.090E-04   AT NODE      18318   DOF 11
 ESTIMATE OF TEMP.    CORRECTION    1.922E-06
 HEAT FLUX EQUILIB. ACCEPTED BASED ON SMALL RESIDUAL AND ESTIMATED CORRECTION

 MAXIMUM NON-PRESCRIBED INCREMENT IN TEMPERATURE IS   1.940E-03

 ITERATION SUMMARY FOR THE INCREMENT:   1 TOTAL ITERATIONS, OF WHICH
   0 ARE SEVERE DISCONTINUITY ITERATIONS AND  1 ARE EQUILIBRIUM ITERATIONS.

 TIME INCREMENT COMPLETED  8.333E-06,  FRACTION OF STEP COMPLETED  0.119    
 STEP TIME COMPLETED       2.371E-03,  TOTAL TIME COMPLETED        2.371E-03


  INCREMENT   298 STARTS. ATTEMPT NUMBER  1, TIME INCREMENT  8.333E-06
 
	UNSYMMETRIC NEW DIRECT SPARSE SOLVER RUNNING ON
 	1 HOST x 1 MPI RANK PER HOST x 1 THREAD PER RANK
        NUMBER OF EQUATIONS:  55023
        NUMBER OF RHS:        1
        NUMBER OF FLOPS:      1.858e+09
        SOLVER ELAPSED TIME:  184ms

               CONVERGENCE CHECKS FOR EQUILIBRIUM ITERATION     1


 AVERAGE FORCE                      1.141E-07   TIME AVG. FORCE       1.085E-07
 LARGEST SCALED RESIDUAL FORCE     -8.526E-15   AT NODE      13451   DOF  1
  CORRESPONDING RESIDUAL FORCE     -8.526E-15
 LARGEST INCREMENT OF DISP.         1.000E-07   AT NODE      18301   DOF  2
 LARGEST CORRECTION TO DISP.        8.100E-14   AT NODE      13847   DOF  1
          THE FORCE     EQUILIBRIUM EQUATIONS HAVE CONVERGED

 AVERAGE HEAT FLUX                  4.117E-08   TIME AVG. HEAT FLUX   5.755E-08
 LARGEST RESIDUAL HEAT FLUX         1.456E-10   AT NODE      11057   DOF 11
 LARGEST INCREMENT OF TEMP.         1.936E-03   AT NODE         25   DOF 11
 LARGEST CORRECTION TO TEMP.        9.076E-05   AT NODE         17   DOF 11
 ESTIMATE OF TEMP.    CORRECTION    1.772E-06
 HEAT FLUX EQUILIB. ACCEPTED BASED ON SMALL RESIDUAL AND ESTIMATED CORRECTION

 MAXIMUM NON-PRESCRIBED INCREMENT IN TEMPERATURE IS   1.936E-03

 ITERATION SUMMARY FOR THE INCREMENT:   1 TOTAL ITERATIONS, OF WHICH
   0 ARE SEVERE DISCONTINUITY ITERATIONS AND  1 ARE EQUILIBRIUM ITERATIONS.

 TIME INCREMENT COMPLETED  8.333E-06,  FRACTION OF STEP COMPLETED  0.119    
 STEP TIME COMPLETED       2.379E-03,  TOTAL TIME COMPLETED        2.379E-03


  INCREMENT   299 STARTS. ATTEMPT NUMBER  1, TIME INCREMENT  8.333E-06
 
	UNSYMMETRIC NEW DIRECT SPARSE SOLVER RUNNING ON
 	1 HOST x 1 MPI RANK PER HOST x 1 THREAD PER RANK
        NUMBER OF EQUATIONS:  55023
        NUMBER OF RHS:        1
        NUMBER OF FLOPS:      1.858e+09
        SOLVER ELAPSED TIME:  244ms

               CONVERGENCE CHECKS FOR EQUILIBRIUM ITERATION     1


 AVERAGE FORCE                      1.145E-07   TIME AVG. FORCE       1.087E-07
 LARGEST SCALED RESIDUAL FORCE     -8.691E-15   AT NODE      13540   DOF  1
  CORRESPONDING RESIDUAL FORCE     -8.691E-15
 LARGEST INCREMENT OF DISP.         1.000E-07   AT NODE      18301   DOF  2
 LARGEST CORRECTION TO DISP.        8.175E-14   AT NODE      13420   DOF  1
          THE FORCE     EQUILIBRIUM EQUATIONS HAVE CONVERGED

 AVERAGE HEAT FLUX                  4.128E-08   TIME AVG. HEAT FLUX   5.750E-08
 LARGEST RESIDUAL HEAT FLUX         1.637E-10   AT NODE      11057   DOF 11
 LARGEST INCREMENT OF TEMP.         1.934E-03   AT NODE         25   DOF 11
 LARGEST CORRECTION TO TEMP.        1.067E-04   AT NODE         17   DOF 11
 ESTIMATE OF TEMP.    CORRECTION    2.095E-06
 HEAT FLUX EQUILIB. ACCEPTED BASED ON SMALL RESIDUAL AND ESTIMATED CORRECTION

 MAXIMUM NON-PRESCRIBED INCREMENT IN TEMPERATURE IS   1.934E-03

 ITERATION SUMMARY FOR THE INCREMENT:   1 TOTAL ITERATIONS, OF WHICH
   0 ARE SEVERE DISCONTINUITY ITERATIONS AND  1 ARE EQUILIBRIUM ITERATIONS.

 TIME INCREMENT COMPLETED  8.333E-06,  FRACTION OF STEP COMPLETED  0.119    
 STEP TIME COMPLETED       2.387E-03,  TOTAL TIME COMPLETED        2.387E-03


  INCREMENT   300 STARTS. ATTEMPT NUMBER  1, TIME INCREMENT  8.333E-06
 
	UNSYMMETRIC NEW DIRECT SPARSE SOLVER RUNNING ON
 	1 HOST x 1 MPI RANK PER HOST x 1 THREAD PER RANK
        NUMBER OF EQUATIONS:  55023
        NUMBER OF RHS:        1
        NUMBER OF FLOPS:      1.858e+09
        SOLVER ELAPSED TIME:  156ms

               CONVERGENCE CHECKS FOR EQUILIBRIUM ITERATION     1


 AVERAGE FORCE                      1.149E-07   TIME AVG. FORCE       1.089E-07
 LARGEST SCALED RESIDUAL FORCE      9.003E-15   AT NODE      13466   DOF  1
  CORRESPONDING RESIDUAL FORCE      9.003E-15
 LARGEST INCREMENT OF DISP.         1.000E-07   AT NODE      18301   DOF  2
 LARGEST CORRECTION TO DISP.        8.099E-14   AT NODE      13847   DOF  1
          THE FORCE     EQUILIBRIUM EQUATIONS HAVE CONVERGED

 AVERAGE HEAT FLUX                  4.093E-08   TIME AVG. HEAT FLUX   5.744E-08
 LARGEST RESIDUAL HEAT FLUX         1.774E-10   AT NODE      11057   DOF 11
 LARGEST INCREMENT OF TEMP.         1.932E-03   AT NODE         24   DOF 11
 LARGEST CORRECTION TO TEMP.        1.352E-04   AT NODE         17   DOF 11
 ESTIMATE OF TEMP.    CORRECTION    2.719E-06
 HEAT FLUX EQUILIB. ACCEPTED BASED ON SMALL RESIDUAL AND ESTIMATED CORRECTION

 MAXIMUM NON-PRESCRIBED INCREMENT IN TEMPERATURE IS   1.932E-03

 ITERATION SUMMARY FOR THE INCREMENT:   1 TOTAL ITERATIONS, OF WHICH
   0 ARE SEVERE DISCONTINUITY ITERATIONS AND  1 ARE EQUILIBRIUM ITERATIONS.

 TIME INCREMENT COMPLETED  8.333E-06,  FRACTION OF STEP COMPLETED  0.120    
 STEP TIME COMPLETED       2.396E-03,  TOTAL TIME COMPLETED        2.396E-03

     RESTART INFORMATION WRITTEN IN STEP   1  AFTER INCREMENT   300


  INCREMENT   301 STARTS. ATTEMPT NUMBER  1, TIME INCREMENT  8.333E-06
 
	UNSYMMETRIC NEW DIRECT SPARSE SOLVER RUNNING ON
 	1 HOST x 1 MPI RANK PER HOST x 1 THREAD PER RANK
        NUMBER OF EQUATIONS:  55023
        NUMBER OF RHS:        1
        NUMBER OF FLOPS:      1.858e+09
        SOLVER ELAPSED TIME:  131ms

               CONVERGENCE CHECKS FOR EQUILIBRIUM ITERATION     1


 AVERAGE FORCE                      1.153E-07   TIME AVG. FORCE       1.091E-07
 LARGEST SCALED RESIDUAL FORCE      1.040E-14   AT NODE      13455   DOF  1
  CORRESPONDING RESIDUAL FORCE      1.040E-14
 LARGEST INCREMENT OF DISP.         1.000E-07   AT NODE      18301   DOF  2
 LARGEST CORRECTION TO DISP.        8.100E-14   AT NODE      13908   DOF  1
          THE FORCE     EQUILIBRIUM EQUATIONS HAVE CONVERGED

 AVERAGE HEAT FLUX                  4.046E-08   TIME AVG. HEAT FLUX   5.739E-08
 LARGEST RESIDUAL HEAT FLUX         1.799E-10   AT NODE      12582   DOF 11
 LARGEST INCREMENT OF TEMP.         1.928E-03   AT NODE         24   DOF 11
 LARGEST CORRECTION TO TEMP.        1.682E-04   AT NODE         17   DOF 11
 ESTIMATE OF TEMP.    CORRECTION    3.393E-06
 HEAT FLUX EQUILIB. ACCEPTED BASED ON SMALL RESIDUAL AND ESTIMATED CORRECTION

 MAXIMUM NON-PRESCRIBED INCREMENT IN TEMPERATURE IS   1.928E-03

 ITERATION SUMMARY FOR THE INCREMENT:   1 TOTAL ITERATIONS, OF WHICH
   0 ARE SEVERE DISCONTINUITY ITERATIONS AND  1 ARE EQUILIBRIUM ITERATIONS.

 TIME INCREMENT COMPLETED  8.333E-06,  FRACTION OF STEP COMPLETED  0.120    
 STEP TIME COMPLETED       2.404E-03,  TOTAL TIME COMPLETED        2.404E-03


  INCREMENT   302 STARTS. ATTEMPT NUMBER  1, TIME INCREMENT  8.333E-06
 
	UNSYMMETRIC NEW DIRECT SPARSE SOLVER RUNNING ON
 	1 HOST x 1 MPI RANK PER HOST x 1 THREAD PER RANK
        NUMBER OF EQUATIONS:  55023
        NUMBER OF RHS:        1
        NUMBER OF FLOPS:      1.858e+09
        SOLVER ELAPSED TIME:  130ms

               CONVERGENCE CHECKS FOR EQUILIBRIUM ITERATION     1


 AVERAGE FORCE                      1.157E-07   TIME AVG. FORCE       1.093E-07
 LARGEST SCALED RESIDUAL FORCE      1.176E-14   AT NODE      13457   DOF  1
  CORRESPONDING RESIDUAL FORCE      1.176E-14
 LARGEST INCREMENT OF DISP.         1.000E-07   AT NODE      18301   DOF  2
 LARGEST CORRECTION TO DISP.        8.101E-14   AT NODE      13420   DOF  1
          THE FORCE     EQUILIBRIUM EQUATIONS HAVE CONVERGED

 AVERAGE HEAT FLUX                  4.034E-08   TIME AVG. HEAT FLUX   5.733E-08
 LARGEST RESIDUAL HEAT FLUX         1.776E-10   AT NODE      18255   DOF 11
 LARGEST INCREMENT OF TEMP.         1.924E-03   AT NODE         25   DOF 11
 LARGEST CORRECTION TO TEMP.        1.915E-04   AT NODE         17   DOF 11
 ESTIMATE OF TEMP.    CORRECTION    3.832E-06
 HEAT FLUX EQUILIB. ACCEPTED BASED ON SMALL RESIDUAL AND ESTIMATED CORRECTION

 MAXIMUM NON-PRESCRIBED INCREMENT IN TEMPERATURE IS   1.924E-03

 ITERATION SUMMARY FOR THE INCREMENT:   1 TOTAL ITERATIONS, OF WHICH
   0 ARE SEVERE DISCONTINUITY ITERATIONS AND  1 ARE EQUILIBRIUM ITERATIONS.

 TIME INCREMENT COMPLETED  8.333E-06,  FRACTION OF STEP COMPLETED  0.121    
 STEP TIME COMPLETED       2.412E-03,  TOTAL TIME COMPLETED        2.412E-03


  INCREMENT   303 STARTS. ATTEMPT NUMBER  1, TIME INCREMENT  8.333E-06
 
	UNSYMMETRIC NEW DIRECT SPARSE SOLVER RUNNING ON
 	1 HOST x 1 MPI RANK PER HOST x 1 THREAD PER RANK
        NUMBER OF EQUATIONS:  55023
        NUMBER OF RHS:        1
        NUMBER OF FLOPS:      1.858e+09
        SOLVER ELAPSED TIME:  136ms

               CONVERGENCE CHECKS FOR EQUILIBRIUM ITERATION     1


 AVERAGE FORCE                      1.159E-07   TIME AVG. FORCE       1.095E-07
 LARGEST SCALED RESIDUAL FORCE      4.091E-09   AT NODE      13114   DOF  2
  CORRESPONDING RESIDUAL FORCE      4.091E-09
 LARGEST INCREMENT OF DISP.         1.000E-07   AT NODE      18301   DOF  2
 LARGEST CORRECTION TO DISP.        7.202E-08   AT NODE      10066   DOF  2
          FORCE     EQUILIBRIUM NOT ACHIEVED WITHIN TOLERANCE.

 AVERAGE HEAT FLUX                  3.824E-08   TIME AVG. HEAT FLUX   5.727E-08
 LARGEST RESIDUAL HEAT FLUX        -1.494E-09   AT NODE      12991   DOF 11
 LARGEST INCREMENT OF TEMP.         2.153E-03   AT NODE      12103   DOF 11
 LARGEST CORRECTION TO TEMP.       -4.990E-04   AT NODE         27   DOF 11
          HEAT FLUX EQUILIBRIUM NOT ACHIEVED WITHIN TOLERANCE.
 
	UNSYMMETRIC NEW DIRECT SPARSE SOLVER RUNNING ON
 	1 HOST x 1 MPI RANK PER HOST x 1 THREAD PER RANK
        NUMBER OF EQUATIONS:  55023
        NUMBER OF RHS:        1
        NUMBER OF FLOPS:      1.858e+09
        SOLVER ELAPSED TIME:  135ms

               CONVERGENCE CHECKS FOR EQUILIBRIUM ITERATION     2


 AVERAGE FORCE                      1.160E-07   TIME AVG. FORCE       1.095E-07
 LARGEST SCALED RESIDUAL FORCE     -2.871E-10   AT NODE      11280   DOF  2
  CORRESPONDING RESIDUAL FORCE     -2.871E-10
 LARGEST INCREMENT OF DISP.         1.000E-07   AT NODE      18301   DOF  2
 LARGEST CORRECTION TO DISP.       -3.912E-08   AT NODE      10005   DOF  2
          DISP.    CORRECTION TOO LARGE COMPARED TO DISP.    INCREMENT

 AVERAGE HEAT FLUX                  3.862E-08   TIME AVG. HEAT FLUX   5.727E-08
 LARGEST RESIDUAL HEAT FLUX        -7.598E-11   AT NODE      11466   DOF 11
 LARGEST INCREMENT OF TEMP.         1.918E-03   AT NODE      11188   DOF 11
 LARGEST CORRECTION TO TEMP.       -2.374E-04   AT NODE      12106   DOF 11
 ESTIMATE OF TEMP.    CORRECTION   -1.207E-05
 HEAT FLUX EQUILIB. ACCEPTED BASED ON SMALL RESIDUAL AND ESTIMATED CORRECTION
 
	UNSYMMETRIC NEW DIRECT SPARSE SOLVER RUNNING ON
 	1 HOST x 1 MPI RANK PER HOST x 1 THREAD PER RANK
        NUMBER OF EQUATIONS:  55023
        NUMBER OF RHS:        1
        NUMBER OF FLOPS:      1.858e+09
        SOLVER ELAPSED TIME:  136ms

               CONVERGENCE CHECKS FOR EQUILIBRIUM ITERATION     3


 AVERAGE FORCE                      1.160E-07   TIME AVG. FORCE       1.095E-07
 LARGEST SCALED RESIDUAL FORCE     -2.695E-11   AT NODE      11270   DOF  2
  CORRESPONDING RESIDUAL FORCE     -2.695E-11
 LARGEST INCREMENT OF DISP.         1.000E-07   AT NODE      18301   DOF  2
 LARGEST CORRECTION TO DISP.       -6.437E-10   AT NODE      11281   DOF  1
          THE FORCE     EQUILIBRIUM EQUATIONS HAVE CONVERGED

 AVERAGE HEAT FLUX                  3.862E-08   TIME AVG. HEAT FLUX   5.727E-08
 LARGEST RESIDUAL HEAT FLUX        -4.633E-12   AT NODE      11331   DOF 11
 LARGEST INCREMENT OF TEMP.         1.918E-03   AT NODE      11371   DOF 11
 LARGEST CORRECTION TO TEMP.       -2.207E-05   AT NODE      11341   DOF 11
 ESTIMATE OF TEMP.    CORRECTION   -1.346E-06
 HEAT FLUX EQUILIB. ACCEPTED BASED ON SMALL RESIDUAL AND ESTIMATED CORRECTION

 MAXIMUM NON-PRESCRIBED INCREMENT IN TEMPERATURE IS   1.918E-03

 ITERATION SUMMARY FOR THE INCREMENT:   3 TOTAL ITERATIONS, OF WHICH
   0 ARE SEVERE DISCONTINUITY ITERATIONS AND  3 ARE EQUILIBRIUM ITERATIONS.

 TIME INCREMENT COMPLETED  8.333E-06,  FRACTION OF STEP COMPLETED  0.121    
 STEP TIME COMPLETED       2.421E-03,  TOTAL TIME COMPLETED        2.421E-03


  INCREMENT   304 STARTS. ATTEMPT NUMBER  1, TIME INCREMENT  8.333E-06
 
	UNSYMMETRIC NEW DIRECT SPARSE SOLVER RUNNING ON
 	1 HOST x 1 MPI RANK PER HOST x 1 THREAD PER RANK
        NUMBER OF EQUATIONS:  55023
        NUMBER OF RHS:        1
        NUMBER OF FLOPS:      1.858e+09
        SOLVER ELAPSED TIME:  137ms

               CONVERGENCE CHECKS FOR EQUILIBRIUM ITERATION     1


 AVERAGE FORCE                      1.157E-07   TIME AVG. FORCE       1.096E-07
 LARGEST SCALED RESIDUAL FORCE      7.896E-09   AT NODE      14212   DOF  2
  CORRESPONDING RESIDUAL FORCE      7.896E-09
 LARGEST INCREMENT OF DISP.         2.102E-07   AT NODE      11286   DOF  2
 LARGEST CORRECTION TO DISP.        1.515E-07   AT NODE      11164   DOF  2
          FORCE     EQUILIBRIUM NOT ACHIEVED WITHIN TOLERANCE.

 AVERAGE HEAT FLUX                  3.755E-08   TIME AVG. HEAT FLUX   5.720E-08
 LARGEST RESIDUAL HEAT FLUX        -3.174E-09   AT NODE      14089   DOF 11
 LARGEST INCREMENT OF TEMP.         2.443E-03   AT NODE      12835   DOF 11
 LARGEST CORRECTION TO TEMP.       -7.639E-04   AT NODE         27   DOF 11
          HEAT FLUX EQUILIBRIUM NOT ACHIEVED WITHIN TOLERANCE.
 
	UNSYMMETRIC NEW DIRECT SPARSE SOLVER RUNNING ON
 	1 HOST x 1 MPI RANK PER HOST x 1 THREAD PER RANK
        NUMBER OF EQUATIONS:  55023
        NUMBER OF RHS:        1
        NUMBER OF FLOPS:      1.858e+09
        SOLVER ELAPSED TIME:  131ms
