 Abaqus/Standard 2023.HF4                  DATE 06-Feb-2025 TIME 19:56:30
 SUMMARY OF JOB INFORMATION:
 STEP  INC ATT SEVERE EQUIL TOTAL  TOTAL      STEP       INC OF       DOF    IF
               DISCON ITERS ITERS  TIME/    TIME/LPF    TIME/LPF    MONITOR RIKS
               ITERS               FREQ
   1     1   1     0     2     2  1.00e-08   1.00e-08   1.000e-08 
   1     2   1     0     2     2  2.00e-08   2.00e-08   1.000e-08 
   1     3   1     0     1     1  3.00e-08   3.00e-08   1.000e-08 
   1     4   1     0     1     1  5.00e-08   5.00e-08   2.000e-08 
   1     5   1     0     1     1  9.00e-08   9.00e-08   4.000e-08 
   1     6   1     0     2     2  1.70e-07   1.70e-07   8.000e-08 
   1     7   1     0     1     1  2.90e-07   2.90e-07   1.200e-07 
   1     8   1     0     2     2  5.30e-07   5.30e-07   2.400e-07 
   1     9   1     0     1     1  8.90e-07   8.90e-07   3.600e-07 
   1    10   1     0     1     1  1.61e-06   1.61e-06   7.200e-07 
   1    11   1     0     2     2  3.05e-06   3.05e-06   1.440e-06 
   1    12   1     0     2     2  5.21e-06   5.21e-06   2.160e-06 
   1    13   1     0     2     2  8.45e-06   8.45e-06   3.240e-06 
   1    14   1     0     3     3  1.33e-05   1.33e-05   4.860e-06 
   1    15   1     0     3     3  2.06e-05   2.06e-05   7.290e-06 
   1    16   1     0     2     2  2.89e-05   2.89e-05   8.333e-06 
   1    17   1     0     3     3  3.73e-05   3.73e-05   8.333e-06 
   1    18   1     0     3     3  4.56e-05   4.56e-05   8.333e-06 
   1    19   1     0     3     3  5.39e-05   5.39e-05   8.333e-06 
   1    20   1     0     2     2  6.23e-05   6.23e-05   8.333e-06 
   1    21   1     0     2     2  7.06e-05   7.06e-05   8.333e-06 
   1    22   1     0     3     3  7.89e-05   7.89e-05   8.333e-06 
   1    23   1     0     3     3  8.73e-05   8.73e-05   8.333e-06 
   1    24   1     0     2     2  9.56e-05   9.56e-05   8.333e-06 
   1    25   1     0     2     2  0.000104   0.000104   8.333e-06 
   1    26   1     0     2     2  0.000112   0.000112   8.333e-06 
   1    27   1     0     3     3  0.000121   0.000121   8.333e-06 
   1    28   1     0     2     2  0.000129   0.000129   8.333e-06 
   1    29   1     0     2     2  0.000137   0.000137   8.333e-06 
   1    30   1     0     2     2  0.000146   0.000146   8.333e-06 
   1    31   1     0     2     2  0.000154   0.000154   8.333e-06 
   1    32   1     0     2     2  0.000162   0.000162   8.333e-06 
   1    33   1     0     2     2  0.000171   0.000171   8.333e-06 
   1    34   1     0     2     2  0.000179   0.000179   8.333e-06 
   1    35   1     0     2     2  0.000187   0.000187   8.333e-06 
   1    36   1     0     2     2  0.000196   0.000196   8.333e-06 
   1    37   1     0     2     2  0.000204   0.000204   8.333e-06 
   1    38   1     0     2     2  0.000212   0.000212   8.333e-06 
   1    39   1     0     2     2  0.000221   0.000221   8.333e-06 
   1    40   1     0     2     2  0.000229   0.000229   8.333e-06 
   1    41   1     0     2     2  0.000237   0.000237   8.333e-06 
   1    42   1     0     2     2  0.000246   0.000246   8.333e-06 
   1    43   1     0     2     2  0.000254   0.000254   8.333e-06 
   1    44   1     0     2     2  0.000262   0.000262   8.333e-06 
   1    45   1     0     2     2  0.000271   0.000271   8.333e-06 
   1    46   1     0     2     2  0.000279   0.000279   8.333e-06 
   1    47   1     0     2     2  0.000287   0.000287   8.333e-06 
   1    48   1     0     2     2  0.000296   0.000296   8.333e-06 
   1    49   1     0     2     2  0.000304   0.000304   8.333e-06 
   1    50   1     0     2     2  0.000312   0.000312   8.333e-06 
   1    51   1     0     2     2  0.000321   0.000321   8.333e-06 
   1    52   1     0     2     2  0.000329   0.000329   8.333e-06 
   1    53   1     0     2     2  0.000337   0.000337   8.333e-06 
   1    54   1     0     2     2  0.000346   0.000346   8.333e-06 
   1    55   1     0     2     2  0.000354   0.000354   8.333e-06 
   1    56   1     0     2     2  0.000362   0.000362   8.333e-06 
   1    57   1     0     2     2  0.000371   0.000371   8.333e-06 
   1    58   1     0     2     2  0.000379   0.000379   8.333e-06 
   1    59   1     0     2     2  0.000387   0.000387   8.333e-06 
   1    60   1     0     2     2  0.000396   0.000396   8.333e-06 
   1    61   1     0     2     2  0.000404   0.000404   8.333e-06 
   1    62   1     0     2     2  0.000412   0.000412   8.333e-06 
   1    63   1     0     2     2  0.000421   0.000421   8.333e-06 
   1    64   1     0     2     2  0.000429   0.000429   8.333e-06 
   1    65   1     0     2     2  0.000437   0.000437   8.333e-06 
   1    66   1     0     2     2  0.000446   0.000446   8.333e-06 
   1    67   1     0     2     2  0.000454   0.000454   8.333e-06 
   1    68   1     0     2     2  0.000462   0.000462   8.333e-06 
   1    69   1     0     2     2  0.000471   0.000471   8.333e-06 
   1    70   1     0     2     2  0.000479   0.000479   8.333e-06 
   1    71   1     0     2     2  0.000487   0.000487   8.333e-06 
   1    72   1     0     2     2  0.000496   0.000496   8.333e-06 
   1    73   1     0     2     2  0.000504   0.000504   8.333e-06 
   1    74   1     0     2     2  0.000512   0.000512   8.333e-06 
   1    75   1     0     2     2  0.000521   0.000521   8.333e-06 
   1    76   1     0     2     2  0.000529   0.000529   8.333e-06 
   1    77   1     0     2     2  0.000537   0.000537   8.333e-06 
   1    78   1     0     2     2  0.000546   0.000546   8.333e-06 
   1    79   1     0     2     2  0.000554   0.000554   8.333e-06 
   1    80   1     0     2     2  0.000562   0.000562   8.333e-06 
   1    81   1     0     2     2  0.000571   0.000571   8.333e-06 
   1    82   1     0     2     2  0.000579   0.000579   8.333e-06 
   1    83   1     0     2     2  0.000587   0.000587   8.333e-06 
   1    84   1     0     2     2  0.000596   0.000596   8.333e-06 
   1    85   1     0     2     2  0.000604   0.000604   8.333e-06 
   1    86   1     0     2     2  0.000612   0.000612   8.333e-06 
   1    87   1     0     2     2  0.000621   0.000621   8.333e-06 
   1    88   1     0     2     2  0.000629   0.000629   8.333e-06 
   1    89   1     0     2     2  0.000637   0.000637   8.333e-06 
   1    90   1     0     2     2  0.000646   0.000646   8.333e-06 
   1    91   1     0     2     2  0.000654   0.000654   8.333e-06 
   1    92   1     0     2     2  0.000662   0.000662   8.333e-06 
   1    93   1     0     2     2  0.000671   0.000671   8.333e-06 
   1    94   1     0     2     2  0.000679   0.000679   8.333e-06 
   1    95   1     0     2     2  0.000687   0.000687   8.333e-06 
   1    96   1     0     2     2  0.000696   0.000696   8.333e-06 
   1    97   1     0     2     2  0.000704   0.000704   8.333e-06 
   1    98   1     0     2     2  0.000712   0.000712   8.333e-06 
   1    99   1     0     2     2  0.000721   0.000721   8.333e-06 
   1   100   1     0     2     2  0.000729   0.000729   8.333e-06 
   1   101   1     0     2     2  0.000737   0.000737   8.333e-06 
   1   102   1     0     2     2  0.000746   0.000746   8.333e-06 
   1   103   1     0     2     2  0.000754   0.000754   8.333e-06 
   1   104   1     0     2     2  0.000762   0.000762   8.333e-06 
   1   105   1     0     2     2  0.000771   0.000771   8.333e-06 
   1   106   1     0     2     2  0.000779   0.000779   8.333e-06 
   1   107   1     0     2     2  0.000787   0.000787   8.333e-06 
   1   108   1     0     2     2  0.000796   0.000796   8.333e-06 
   1   109   1     0     2     2  0.000804   0.000804   8.333e-06 
   1   110   1     0     2     2  0.000812   0.000812   8.333e-06 
   1   111   1     0     2     2  0.000821   0.000821   8.333e-06 
   1   112   1     0     2     2  0.000829   0.000829   8.333e-06 
   1   113   1     0     2     2  0.000837   0.000837   8.333e-06 
   1   114   1     0     2     2  0.000846   0.000846   8.333e-06 
   1   115   1     0     2     2  0.000854   0.000854   8.333e-06 
   1   116   1     0     2     2  0.000862   0.000862   8.333e-06 
   1   117   1     0     2     2  0.000871   0.000871   8.333e-06 
   1   118   1     0     2     2  0.000879   0.000879   8.333e-06 
   1   119   1     0     2     2  0.000887   0.000887   8.333e-06 
   1   120   1     0     2     2  0.000896   0.000896   8.333e-06 
   1   121   1     0     2     2  0.000904   0.000904   8.333e-06 
   1   122   1     0     2     2  0.000912   0.000912   8.333e-06 
   1   123   1     0     2     2  0.000921   0.000921   8.333e-06 
   1   124   1     0     2     2  0.000929   0.000929   8.333e-06 
   1   125   1     0     2     2  0.000937   0.000937   8.333e-06 
   1   126   1     0     2     2  0.000946   0.000946   8.333e-06 
   1   127   1     0     2     2  0.000954   0.000954   8.333e-06 
   1   128   1     0     2     2  0.000962   0.000962   8.333e-06 
   1   129   1     0     2     2  0.000971   0.000971   8.333e-06 
   1   130   1     0     2     2  0.000979   0.000979   8.333e-06 
   1   131   1     0     2     2  0.000987   0.000987   8.333e-06 
   1   132   1     0     2     2  0.000996   0.000996   8.333e-06 
   1   133   1     0     2     2  0.00100    0.00100    8.333e-06 
   1   134   1     0     2     2  0.00101    0.00101    8.333e-06 
   1   135   1     0     2     2  0.00102    0.00102    8.333e-06 
   1   136   1     0     2     2  0.00103    0.00103    8.333e-06 
   1   137   1     0     2     2  0.00104    0.00104    8.333e-06 
   1   138   1     0     2     2  0.00105    0.00105    8.333e-06 
   1   139   1     0     2     2  0.00105    0.00105    8.333e-06 
   1   140   1     0     2     2  0.00106    0.00106    8.333e-06 
   1   141   1     0     2     2  0.00107    0.00107    8.333e-06 
   1   142   1     0     2     2  0.00108    0.00108    8.333e-06 
   1   143   1     0     2     2  0.00109    0.00109    8.333e-06 
   1   144   1     0     2     2  0.00110    0.00110    8.333e-06 
   1   145   1     0     2     2  0.00110    0.00110    8.333e-06 
   1   146   1     0     2     2  0.00111    0.00111    8.333e-06 
   1   147   1     0     2     2  0.00112    0.00112    8.333e-06 
   1   148   1     0     2     2  0.00113    0.00113    8.333e-06 
   1   149   1     0     2     2  0.00114    0.00114    8.333e-06 
   1   150   1     0     2     2  0.00115    0.00115    8.333e-06 
   1   151   1     0     2     2  0.00115    0.00115    8.333e-06 
   1   152   1     0     2     2  0.00116    0.00116    8.333e-06 
   1   153   1     0     2     2  0.00117    0.00117    8.333e-06 
   1   154   1     0     2     2  0.00118    0.00118    8.333e-06 
   1   155   1     0     2     2  0.00119    0.00119    8.333e-06 
   1   156   1     0     2     2  0.00120    0.00120    8.333e-06 
   1   157   1     0     2     2  0.00120    0.00120    8.333e-06 
   1   158   1     0     2     2  0.00121    0.00121    8.333e-06 
   1   159   1     0     2     2  0.00122    0.00122    8.333e-06 
   1   160   1     0     2     2  0.00123    0.00123    8.333e-06 
   1   161   1     0     2     2  0.00124    0.00124    8.333e-06 
   1   162   1     0     2     2  0.00125    0.00125    8.333e-06 
   1   163   1     0     2     2  0.00125    0.00125    8.333e-06 
   1   164   1     0     2     2  0.00126    0.00126    8.333e-06 
   1   165   1     0     2     2  0.00127    0.00127    8.333e-06 
   1   166   1     0     2     2  0.00128    0.00128    8.333e-06 
   1   167   1     0     2     2  0.00129    0.00129    8.333e-06 
   1   168   1     0     2     2  0.00130    0.00130    8.333e-06 
   1   169   1     0     2     2  0.00130    0.00130    8.333e-06 
   1   170   1     0     2     2  0.00131    0.00131    8.333e-06 
   1   171   1     0     2     2  0.00132    0.00132    8.333e-06 
   1   172   1     0     2     2  0.00133    0.00133    8.333e-06 
   1   173   1     0     2     2  0.00134    0.00134    8.333e-06 
   1   174   1     0     2     2  0.00135    0.00135    8.333e-06 
   1   175   1     0     2     2  0.00135    0.00135    8.333e-06 
   1   176   1     0     2     2  0.00136    0.00136    8.333e-06 
   1   177   1     0     2     2  0.00137    0.00137    8.333e-06 
   1   178   1     0     2     2  0.00138    0.00138    8.333e-06 
   1   179   1     0     2     2  0.00139    0.00139    8.333e-06 
   1   180   1     0     2     2  0.00140    0.00140    8.333e-06 
   1   181   1     0     2     2  0.00140    0.00140    8.333e-06 
   1   182   1     0     2     2  0.00141    0.00141    8.333e-06 
   1   183   1     0     2     2  0.00142    0.00142    8.333e-06 
   1   184   1     0     2     2  0.00143    0.00143    8.333e-06 
   1   185   1     0     2     2  0.00144    0.00144    8.333e-06 
   1   186   1     0     2     2  0.00145    0.00145    8.333e-06 
   1   187   1     0     2     2  0.00145    0.00145    8.333e-06 
   1   188   1     0     2     2  0.00146    0.00146    8.333e-06 
   1   189   1     0     2     2  0.00147    0.00147    8.333e-06 
   1   190   1     0     2     2  0.00148    0.00148    8.333e-06 
   1   191   1     0     2     2  0.00149    0.00149    8.333e-06 
   1   192   1     0     2     2  0.00150    0.00150    8.333e-06 
   1   193   1     0     2     2  0.00150    0.00150    8.333e-06 
   1   194   1     0     2     2  0.00151    0.00151    8.333e-06 
   1   195   1     0     2     2  0.00152    0.00152    8.333e-06 
   1   196   1     0     2     2  0.00153    0.00153    8.333e-06 
   1   197   1     0     2     2  0.00154    0.00154    8.333e-06 
   1   198   1     0     2     2  0.00155    0.00155    8.333e-06 
   1   199   1     0     2     2  0.00155    0.00155    8.333e-06 
   1   200   1     0     2     2  0.00156    0.00156    8.333e-06 
   1   201   1     0     2     2  0.00157    0.00157    8.333e-06 
   1   202   1     0     2     2  0.00158    0.00158    8.333e-06 
   1   203   1     0     2     2  0.00159    0.00159    8.333e-06 
   1   204   1     0     2     2  0.00160    0.00160    8.333e-06 
   1   205   1     0     2     2  0.00160    0.00160    8.333e-06 
   1   206   1     0     2     2  0.00161    0.00161    8.333e-06 
   1   207   1     0     2     2  0.00162    0.00162    8.333e-06 
   1   208   1     0     2     2  0.00163    0.00163    8.333e-06 
   1   209   1     0     2     2  0.00164    0.00164    8.333e-06 
   1   210   1     0     2     2  0.00165    0.00165    8.333e-06 
   1   211   1     0     2     2  0.00165    0.00165    8.333e-06 
   1   212   1     0     2     2  0.00166    0.00166    8.333e-06 
   1   213   1     0     2     2  0.00167    0.00167    8.333e-06 
   1   214   1     0     2     2  0.00168    0.00168    8.333e-06 
   1   215   1     0     2     2  0.00169    0.00169    8.333e-06 
   1   216   1     0     2     2  0.00170    0.00170    8.333e-06 
   1   217   1     0     2     2  0.00170    0.00170    8.333e-06 
   1   218   1     0     2     2  0.00171    0.00171    8.333e-06 
   1   219   1     0     2     2  0.00172    0.00172    8.333e-06 
   1   220   1     0     2     2  0.00173    0.00173    8.333e-06 
   1   221   1     0     2     2  0.00174    0.00174    8.333e-06 
   1   222   1     0     2     2  0.00175    0.00175    8.333e-06 
   1   223   1     0     2     2  0.00175    0.00175    8.333e-06 
   1   224   1     0     2     2  0.00176    0.00176    8.333e-06 
   1   225   1     0     2     2  0.00177    0.00177    8.333e-06 
   1   226   1     0     2     2  0.00178    0.00178    8.333e-06 
   1   227   1     0     2     2  0.00179    0.00179    8.333e-06 
   1   228   1     0     2     2  0.00180    0.00180    8.333e-06 
   1   229   1     0     2     2  0.00180    0.00180    8.333e-06 
   1   230   1     0     1     1  0.00181    0.00181    8.333e-06 
   1   231   1     0     2     2  0.00182    0.00182    8.333e-06 
   1   232   1     0     2     2  0.00183    0.00183    8.333e-06 
   1   233   1     0     2     2  0.00184    0.00184    8.333e-06 
   1   234   1     0     2     2  0.00185    0.00185    8.333e-06 
   1   235   1     0     2     2  0.00185    0.00185    8.333e-06 
   1   236   1     0     2     2  0.00186    0.00186    8.333e-06 
   1   237   1     0     1     1  0.00187    0.00187    8.333e-06 
   1   238   1     0     1     1  0.00188    0.00188    8.333e-06 
   1   239   1     0     1     1  0.00189    0.00189    8.333e-06 
   1   240   1     0     2     2  0.00190    0.00190    8.333e-06 
   1   241   1     0     2     2  0.00190    0.00190    8.333e-06 
   1   242   1     0     2     2  0.00191    0.00191    8.333e-06 
   1   243   1     0     2     2  0.00192    0.00192    8.333e-06 
   1   244   1     0     2     2  0.00193    0.00193    8.333e-06 
   1   245   1     0     1     1  0.00194    0.00194    8.333e-06 
   1   246   1     0     1     1  0.00195    0.00195    8.333e-06 
   1   247   1     0     1     1  0.00195    0.00195    8.333e-06 
   1   248   1     0     1     1  0.00196    0.00196    8.333e-06 
   1   249   1     0     2     2  0.00197    0.00197    8.333e-06 
   1   250   1     0     2     2  0.00198    0.00198    8.333e-06 
   1   251   1     0     2     2  0.00199    0.00199    8.333e-06 
   1   252   1     0     1     1  0.00200    0.00200    8.333e-06 
   1   253   1     0     1     1  0.00200    0.00200    8.333e-06 
   1   254   1     0     1     1  0.00201    0.00201    8.333e-06 
   1   255   1     0     1     1  0.00202    0.00202    8.333e-06 
   1   256   1     0     1     1  0.00203    0.00203    8.333e-06 
   1   257   1     0     1     1  0.00204    0.00204    8.333e-06 
   1   258   1     0     1     1  0.00205    0.00205    8.333e-06 
   1   259   1     0     1     1  0.00205    0.00205    8.333e-06 
   1   260   1     0     1     1  0.00206    0.00206    8.333e-06 
   1   261   1     0     1     1  0.00207    0.00207    8.333e-06 
   1   262   1     0     1     1  0.00208    0.00208    8.333e-06 
   1   263   1     0     1     1  0.00209    0.00209    8.333e-06 
   1   264   1     0     1     1  0.00210    0.00210    8.333e-06 
   1   265   1     0     1     1  0.00210    0.00210    8.333e-06 
   1   266   1     0     1     1  0.00211    0.00211    8.333e-06 
   1   267   1     0     1     1  0.00212    0.00212    8.333e-06 
   1   268   1     0     1     1  0.00213    0.00213    8.333e-06 
   1   269   1     0     1     1  0.00214    0.00214    8.333e-06 
   1   270   1     0     1     1  0.00215    0.00215    8.333e-06 
   1   271   1     0     1     1  0.00215    0.00215    8.333e-06 
   1   272   1     0     1     1  0.00216    0.00216    8.333e-06 
   1   273   1     0     1     1  0.00217    0.00217    8.333e-06 
   1   274   1     0     1     1  0.00218    0.00218    8.333e-06 
   1   275   1     0     1     1  0.00219    0.00219    8.333e-06 
   1   276   1     0     1     1  0.00220    0.00220    8.333e-06 
   1   277   1     0     1     1  0.00220    0.00220    8.333e-06 
   1   278   1     0     1     1  0.00221    0.00221    8.333e-06 
   1   279   1     0     1     1  0.00222    0.00222    8.333e-06 
   1   280   1     0     1     1  0.00223    0.00223    8.333e-06 
   1   281   1     0     1     1  0.00224    0.00224    8.333e-06 
   1   282   1     0     1     1  0.00225    0.00225    8.333e-06 
   1   283   1     0     1     1  0.00225    0.00225    8.333e-06 
   1   284   1     0     1     1  0.00226    0.00226    8.333e-06 
   1   285   1     0     1     1  0.00227    0.00227    8.333e-06 
   1   286   1     0     1     1  0.00228    0.00228    8.333e-06 
   1   287   1     0     1     1  0.00229    0.00229    8.333e-06 
   1   288   1     0     1     1  0.00230    0.00230    8.333e-06 
   1   289   1     0     1     1  0.00230    0.00230    8.333e-06 
   1   290   1     0     1     1  0.00231    0.00231    8.333e-06 
   1   291   1     0     1     1  0.00232    0.00232    8.333e-06 
   1   292   1     0     1     1  0.00233    0.00233    8.333e-06 
   1   293   1     0     1     1  0.00234    0.00234    8.333e-06 
   1   294   1     0     1     1  0.00235    0.00235    8.333e-06 
   1   295   1     0     1     1  0.00235    0.00235    8.333e-06 
   1   296   1     0     1     1  0.00236    0.00236    8.333e-06 
   1   297   1     0     1     1  0.00237    0.00237    8.333e-06 
   1   298   1     0     1     1  0.00238    0.00238    8.333e-06 
   1   299   1     0     1     1  0.00239    0.00239    8.333e-06 
   1   300   1     0     1     1  0.00240    0.00240    8.333e-06 
   1   301   1     0     1     1  0.00240    0.00240    8.333e-06 
   1   302   1     0     1     1  0.00241    0.00241    8.333e-06 
   1   303   1     0     3     3  0.00242    0.00242    8.333e-06 
