1

   Abaqus 2023.HF4                                  Date 11-Feb-2025   Time 16:51:21
   For use by AALTO UNIVERSITY under license from Dassault Systemes or its subsidiary.

                                                                                 
                                                                                 
 STEP    1     INCREMENT     1     STEP TIME    0.00    


                        S T E P       1     C O U P L E D - T E M P E R A T U R E - D I S P L A C E M E N T   A N A L Y S I S


                                                                                          

     AUTOMATIC TIME CONTROL WITH -
          A SUGGESTED INITIAL TIME INCREMENT OF                5.000E+06
          AND A TOTAL TIME PERIOD OF                           1.000E+10
          THE MINIMUM TIME INCREMENT ALLOWED IS                1.000E+06
          THE MAXIMUM TIME INCREMENT ALLOWED IS                1.000E+07

          CREEP AND SWELLING EFFECTS ARE OMITTED IN THIS STEP

     THE SIZE OF THE TIME INCREMENT IS CONTROLLED BY -
          THE TEMPERATURE CHANGE PER INCREMENT NOT EXCEEDING            10.0    
          THE RATE DEPENDENCY WILL BE CONSIDERED IN THIS STEP

          CREEP AND SWELLING EFFECTS WILL BE IGNORED.

 CONVERGENCE TOLERANCE PARAMETERS FOR FORCE    
     CRITERION FOR RESIDUAL FORCE     FOR A NONLINEAR PROBLEM          5.000E-03
     CRITERION FOR DISP.    CORRECTION IN A NONLINEAR PROBLEM          1.000E-02
     INITIAL VALUE OF TIME AVERAGE FORCE                               1.000E-02
     AVERAGE FORCE     IS TIME AVERAGE FORCE    
     ALTERNATE CRIT. FOR RESIDUAL FORCE     FOR A NONLINEAR PROBLEM    2.000E-02
     CRITERION FOR ZERO FORCE     RELATIVE TO TIME AVRG. FORCE         1.000E-05
     CRITERION FOR RESIDUAL FORCE     WHEN THERE IS ZERO FLUX          1.000E-05
     CRITERION FOR DISP.    CORRECTION WHEN THERE IS ZERO FLUX         1.000E-03
     CRITERION FOR RESIDUAL FORCE     FOR A LINEAR INCREMENT           1.000E-08
     FIELD CONVERSION RATIO                                             1.00    
     CRITERION FOR ZERO FORCE     REL. TO TIME AVRG. MAX. FORCE        1.000E-05
     CRITERION FOR ZERO DISP.    RELATIVE TO CHARACTERISTIC LENGTH     1.000E-08

 CONVERGENCE TOLERANCE PARAMETERS FOR HEAT FLUX
     CRITERION FOR RESIDUAL HEAT FLUX FOR A NONLINEAR PROBLEM          5.000E-03
     CRITERION FOR TEMP.    CORRECTION IN A NONLINEAR PROBLEM          1.000E-02
     INITIAL VALUE OF TIME AVERAGE HEAT FLUX                           1.000E-02
     AVERAGE HEAT FLUX IS TIME AVERAGE HEAT FLUX
     ALTERNATE CRIT. FOR RESIDUAL HEAT FLUX FOR A NONLINEAR PROBLEM    2.000E-02
     CRITERION FOR ZERO HEAT FLUX RELATIVE TO TIME AVRG. HEAT FLUX     1.000E-05
     CRITERION FOR RESIDUAL HEAT FLUX WHEN THERE IS ZERO FLUX          1.000E-05
     CRITERION FOR TEMP.    CORRECTION WHEN THERE IS ZERO FLUX         1.000E-03
     CRITERION FOR RESIDUAL HEAT FLUX FOR A LINEAR INCREMENT           1.000E-08
     FIELD CONVERSION RATIO                                             1.00    
     CRITERION FOR ZERO HEAT FLUX REL. TO TIME AVRG. MAX. HEAT FLUX    1.000E-05

     VOLUMETRIC STRAIN COMPATIBILITY TOLERANCE FOR HYBRID SOLIDS       1.000E-05
     AXIAL STRAIN COMPATIBILITY TOLERANCE FOR HYBRID BEAMS             1.000E-05
     TRANS. SHEAR STRAIN COMPATIBILITY TOLERANCE FOR HYBRID BEAMS      1.000E-05
     SOFT CONTACT CONSTRAINT COMPATIBILITY TOLERANCE FOR P>P0          5.000E-03
     SOFT CONTACT CONSTRAINT COMPATIBILITY TOLERANCE FOR P=0.0         0.100    
     CONTACT FORCE ERROR TOLERANCE FOR CONVERT SDI=YES                 1.00    
     DISPLACEMENT COMPATIBILITY TOLERANCE FOR DCOUP ELEMENTS           1.000E-05
     ROTATION COMPATIBILITY TOLERANCE FOR DCOUP ELEMENTS               1.000E-05

 EQUILIBRIUM WILL BE CHECKED FOR SEVERE DISCONTINUITY ITERATIONS

 TIME INCREMENTATION CONTROL PARAMETERS:
     FIRST EQUILIBRIUM ITERATION FOR CONSECUTIVE DIVERGENCE CHECK              4
     EQUILIBRIUM ITERATION AT WHICH LOG. CONVERGENCE RATE CHECK BEGINS         8
     EQUILIBRIUM ITERATION AFTER WHICH ALTERNATE RESIDUAL IS USED              9
     MAXIMUM EQUILIBRIUM ITERATIONS ALLOWED                                   16
     EQUILIBRIUM ITERATION COUNT FOR CUT-BACK IN NEXT INCREMENT               10
     MAXIMUM EQUILIB. ITERS IN TWO INCREMENTS FOR TIME INCREMENT INCREASE      4
     MAXIMUM ITERATIONS FOR SEVERE DISCONTINUITIES                            50
     MAXIMUM ATTEMPTS ALLOWED IN AN INCREMENT                                  5
     MAXIMUM DISCON. ITERS IN TWO INCREMENTS FOR TIME INCREMENT INCREASE      50
     MAXIMUM CONTACT AUGMENTATIONS FOR *SURFACE BEHAVIOR,AUGMENTED LAGRANGE   50
     CONSECUTIVE INCS MEETING TIME INTEG. TOL. FOR TIME INC. INCREASE          3
     CUT-BACK FACTOR AFTER DIVERGENCE                                 0.2500    
     CUT-BACK FACTOR FOR TOO SLOW CONVERGENCE                         0.5000    
     CUT-BACK FACTOR AFTER TOO MANY EQUILIBRIUM ITERATIONS            0.7500    
     CUT-BACK FACTOR AFTER TOO MANY SEVERE DISCONTINUITY ITERATIONS   0.2500    
     CUT-BACK FACTOR AFTER PROBLEMS IN ELEMENT ASSEMBLY               0.2500    
     INCREASE FACTOR AFTER TWO INCREMENTS THAT CONVERGE QUICKLY        1.500    
     MAX. TIME INCREMENT INCREASE FACTOR ALLOWED                       1.500    
     MAX. TIME INCREMENT INCREASE FACTOR ALLOWED (DYNAMICS)            1.250    
     MAX. TIME INCREMENT INCREASE FACTOR ALLOWED (DIFFUSION)           2.000    
     MINIMUM TIME INCREMENT RATIO FOR EXTRAPOLATION TO OCCUR          0.1000    
     CUT-BACK FACTOR WHEN TIME INTEGRATION ACCURACY TOL. EXCEEDED     0.8500    
     MAX. RATIO OF TIME INTEG. MEASURE TO TOL. FOR TIME INC. INCREASE 0.7500    
     INCREASE FACTOR FOR TIME INCREMENT WHEN POSSIBLE                 0.8000    
     MIN. TIME INC. INCREASE FACTOR IN LINEAR TRANSIENT PROBLEMS      0.9500    
     MAX. RATIO OF TIME INCREMENT TO STABILITY LIMIT                   1.000    
     FRACTION OF STABILITY LIMIT FOR NEW TIME INCREMENT               0.9500    
     TIME INCREMENT INCREASE FACTOR BEFORE A TIME POINT                1.000    
     GLOBAL STABILIZATION CONTROL IS NOT USED

          PRINT OF INCREMENT NUMBER, TIME, ETC., EVERY    1  INCREMENTS

     THE MAXIMUM NUMBER OF INCREMENTS IN THIS STEP IS                 *******

          LARGE DISPLACEMENT THEORY WILL BE USED

          UNSYMMETRIC MATRIX STORAGE AND SOLUTION WILL BE USED

     LINEAR EXTRAPOLATION WILL BE USED

     CHARACTERISTIC ELEMENT LENGTH     1.142E-03

     DETAILS REGARDING ACTUAL SOLUTION WAVEFRONT REQUESTED

     DETAILED OUTPUT OF DIAGNOSTICS TO DATABASE REQUESTED

     PRINT OF INCREMENT NUMBER, TIME, ETC., TO THE MESSAGE FILE EVERY     1  INCREMENTS

     COLLECTING MODEL CONSTRAINT INFORMATION FOR OVERCONSTRAINT CHECKS

     COLLECTING STEP CONSTRAINT INFORMATION FOR OVERCONSTRAINT CHECKS


  INCREMENT     1 STARTS. ATTEMPT NUMBER  1, TIME INCREMENT  5.000E+06
 
	UNSYMMETRIC NEW DIRECT SPARSE SOLVER RUNNING ON
 	1 HOST x 1 MPI RANK PER HOST x 1 THREAD PER RANK
        NUMBER OF EQUATIONS:  19344
        NUMBER OF RHS:        1
        NUMBER OF FLOPS:      2.940e+09
        SOLVER ELAPSED TIME:  107ms

 ***WARNING: SOLVER PROBLEM.  ZERO PIVOT WHEN PROCESSING NODE 871 INSTANCE 
             ELASTIC-HOLD-PLATE-1 D.O.F. 11
  Typically a zero pivot is associated with an overconstraint in the model. 
 However, Abaqus was not able to identify any chains of constraints that might 
 lead to an overconstraint at this node. This suggests that the model might be 
 in fact insufficiently constrained in this particular degree of freedom. 
 Please check the constraints used in this model. 


 ***WARNING: SOLVER PROBLEM.  ZERO PIVOT WHEN PROCESSING NODE 873 INSTANCE 
             ELASTIC-HOLD-PLATE-1 D.O.F. 11
  Typically a zero pivot is associated with an overconstraint in the model. 
 However, Abaqus was not able to identify any chains of constraints that might 
 lead to an overconstraint at this node. This suggests that the model might be 
 in fact insufficiently constrained in this particular degree of freedom. 
 Please check the constraints used in this model. 


 ***WARNING: SOLVER PROBLEM.  ZERO PIVOT WHEN PROCESSING NODE 872 INSTANCE 
             ELASTIC-HOLD-PLATE-1 D.O.F. 11
  Typically a zero pivot is associated with an overconstraint in the model. 
 However, Abaqus was not able to identify any chains of constraints that might 
 lead to an overconstraint at this node. This suggests that the model might be 
 in fact insufficiently constrained in this particular degree of freedom. 
 Please check the constraints used in this model. 


 ***WARNING: SOLVER PROBLEM.  ZERO PIVOT WHEN PROCESSING NODE 939 INSTANCE 
             ELASTIC-HOLD-PLATE-1 D.O.F. 11
  Typically a zero pivot is associated with an overconstraint in the model. 
 However, Abaqus was not able to identify any chains of constraints that might 
 lead to an overconstraint at this node. This suggests that the model might be 
 in fact insufficiently constrained in this particular degree of freedom. 
 Please check the constraints used in this model. 


 ***WARNING: SOLVER PROBLEM.  ZERO PIVOT WHEN PROCESSING NODE 1003 INSTANCE 
             ELASTIC-HOLD-PLATE-1 D.O.F. 11
  Typically a zero pivot is associated with an overconstraint in the model. 
 However, Abaqus was not able to identify any chains of constraints that might 
 lead to an overconstraint at this node. This suggests that the model might be 
 in fact insufficiently constrained in this particular degree of freedom. 
 Please check the constraints used in this model. 


 ***WARNING: SOLVER PROBLEM.  ZERO PIVOT WHEN PROCESSING NODE 938 INSTANCE 
             ELASTIC-HOLD-PLATE-1 D.O.F. 11
  Typically a zero pivot is associated with an overconstraint in the model. 
 However, Abaqus was not able to identify any chains of constraints that might 
 lead to an overconstraint at this node. This suggests that the model might be 
 in fact insufficiently constrained in this particular degree of freedom. 
 Please check the constraints used in this model. 


 ***WARNING: SOLVER PROBLEM.  ZERO PIVOT WHEN PROCESSING NODE 937 INSTANCE 
             ELASTIC-HOLD-PLATE-1 D.O.F. 11
  Typically a zero pivot is associated with an overconstraint in the model. 
 However, Abaqus was not able to identify any chains of constraints that might 
 lead to an overconstraint at this node. This suggests that the model might be 
 in fact insufficiently constrained in this particular degree of freedom. 
 Please check the constraints used in this model. 


 ***WARNING: SOLVER PROBLEM.  ZERO PIVOT WHEN PROCESSING NODE 877 INSTANCE 
             ELASTIC-HOLD-PLATE-1 D.O.F. 11
  Typically a zero pivot is associated with an overconstraint in the model. 
 However, Abaqus was not able to identify any chains of constraints that might 
 lead to an overconstraint at this node. This suggests that the model might be 
 in fact insufficiently constrained in this particular degree of freedom. 
 Please check the constraints used in this model. 


 ***WARNING: SOLVER PROBLEM.  ZERO PIVOT WHEN PROCESSING NODE 879 INSTANCE 
             ELASTIC-HOLD-PLATE-1 D.O.F. 11
  Typically a zero pivot is associated with an overconstraint in the model. 
 However, Abaqus was not able to identify any chains of constraints that might 
 lead to an overconstraint at this node. This suggests that the model might be 
 in fact insufficiently constrained in this particular degree of freedom. 
 Please check the constraints used in this model. 


 ***WARNING: SOLVER PROBLEM.  ZERO PIVOT WHEN PROCESSING NODE 878 INSTANCE 
             ELASTIC-HOLD-PLATE-1 D.O.F. 11
  Typically a zero pivot is associated with an overconstraint in the model. 
 However, Abaqus was not able to identify any chains of constraints that might 
 lead to an overconstraint at this node. This suggests that the model might be 
 in fact insufficiently constrained in this particular degree of freedom. 
 Please check the constraints used in this model. 


 ***WARNING: SOLVER PROBLEM.  ZERO PIVOT WHEN PROCESSING NODE 943 INSTANCE 
             ELASTIC-HOLD-PLATE-1 D.O.F. 11
  Typically a zero pivot is associated with an overconstraint in the model. 
 However, Abaqus was not able to identify any chains of constraints that might 
 lead to an overconstraint at this node. This suggests that the model might be 
 in fact insufficiently constrained in this particular degree of freedom. 
 Please check the constraints used in this model. 


 ***WARNING: SOLVER PROBLEM.  ZERO PIVOT WHEN PROCESSING NODE 944 INSTANCE 
             ELASTIC-HOLD-PLATE-1 D.O.F. 11
  Typically a zero pivot is associated with an overconstraint in the model. 
 However, Abaqus was not able to identify any chains of constraints that might 
 lead to an overconstraint at this node. This suggests that the model might be 
 in fact insufficiently constrained in this particular degree of freedom. 
 Please check the constraints used in this model. 


 ***WARNING: SOLVER PROBLEM.  ZERO PIVOT WHEN PROCESSING NODE 945 INSTANCE 
             ELASTIC-HOLD-PLATE-1 D.O.F. 11
  Typically a zero pivot is associated with an overconstraint in the model. 
 However, Abaqus was not able to identify any chains of constraints that might 
 lead to an overconstraint at this node. This suggests that the model might be 
 in fact insufficiently constrained in this particular degree of freedom. 
 Please check the constraints used in this model. 


 ***WARNING: SOLVER PROBLEM.  ZERO PIVOT WHEN PROCESSING NODE 1075 INSTANCE 
             ELASTIC-HOLD-PLATE-1 D.O.F. 11
  Typically a zero pivot is associated with an overconstraint in the model. 
 However, Abaqus was not able to identify any chains of constraints that might 
 lead to an overconstraint at this node. This suggests that the model might be 
 in fact insufficiently constrained in this particular degree of freedom. 
 Please check the constraints used in this model. 


 ***WARNING: SOLVER PROBLEM.  ZERO PIVOT WHEN PROCESSING NODE 1077 INSTANCE 
             ELASTIC-HOLD-PLATE-1 D.O.F. 11
  Typically a zero pivot is associated with an overconstraint in the model. 
 However, Abaqus was not able to identify any chains of constraints that might 
 lead to an overconstraint at this node. This suggests that the model might be 
 in fact insufficiently constrained in this particular degree of freedom. 
 Please check the constraints used in this model. 


 ***WARNING: SOLVER PROBLEM.  ZERO PIVOT WHEN PROCESSING NODE 1076 INSTANCE 
             ELASTIC-HOLD-PLATE-1 D.O.F. 11
  Typically a zero pivot is associated with an overconstraint in the model. 
 However, Abaqus was not able to identify any chains of constraints that might 
 lead to an overconstraint at this node. This suggests that the model might be 
 in fact insufficiently constrained in this particular degree of freedom. 
 Please check the constraints used in this model. 


 ***WARNING: SOLVER PROBLEM.  ZERO PIVOT WHEN PROCESSING NODE 1011 INSTANCE 
             ELASTIC-HOLD-PLATE-1 D.O.F. 11
  Typically a zero pivot is associated with an overconstraint in the model. 
 However, Abaqus was not able to identify any chains of constraints that might 
 lead to an overconstraint at this node. This suggests that the model might be 
 in fact insufficiently constrained in this particular degree of freedom. 
 Please check the constraints used in this model. 


 ***WARNING: SOLVER PROBLEM.  ZERO PIVOT WHEN PROCESSING NODE 1009 INSTANCE 
             ELASTIC-HOLD-PLATE-1 D.O.F. 11
  Typically a zero pivot is associated with an overconstraint in the model. 
 However, Abaqus was not able to identify any chains of constraints that might 
 lead to an overconstraint at this node. This suggests that the model might be 
 in fact insufficiently constrained in this particular degree of freedom. 
 Please check the constraints used in this model. 


 ***WARNING: SOLVER PROBLEM.  ZERO PIVOT WHEN PROCESSING NODE 1010 INSTANCE 
             ELASTIC-HOLD-PLATE-1 D.O.F. 11
  Typically a zero pivot is associated with an overconstraint in the model. 
 However, Abaqus was not able to identify any chains of constraints that might 
 lead to an overconstraint at this node. This suggests that the model might be 
 in fact insufficiently constrained in this particular degree of freedom. 
 Please check the constraints used in this model. 


 ***WARNING: SOLVER PROBLEM.  ZERO PIVOT WHEN PROCESSING NODE 1006 INSTANCE 
             ELASTIC-HOLD-PLATE-1 D.O.F. 11
  Typically a zero pivot is associated with an overconstraint in the model. 
 However, Abaqus was not able to identify any chains of constraints that might 
 lead to an overconstraint at this node. This suggests that the model might be 
 in fact insufficiently constrained in this particular degree of freedom. 
 Please check the constraints used in this model. 


 ***WARNING: SOLVER PROBLEM.  ZERO PIVOT WHEN PROCESSING NODE 874 INSTANCE 
             ELASTIC-HOLD-PLATE-1 D.O.F. 11
  Typically a zero pivot is associated with an overconstraint in the model. 
 However, Abaqus was not able to identify any chains of constraints that might 
 lead to an overconstraint at this node. This suggests that the model might be 
 in fact insufficiently constrained in this particular degree of freedom. 
 Please check the constraints used in this model. 


 ***WARNING: SOLVER PROBLEM.  ZERO PIVOT WHEN PROCESSING NODE 875 INSTANCE 
             ELASTIC-HOLD-PLATE-1 D.O.F. 11
  Typically a zero pivot is associated with an overconstraint in the model. 
 However, Abaqus was not able to identify any chains of constraints that might 
 lead to an overconstraint at this node. This suggests that the model might be 
 in fact insufficiently constrained in this particular degree of freedom. 
 Please check the constraints used in this model. 


 ***WARNING: SOLVER PROBLEM.  ZERO PIVOT WHEN PROCESSING NODE 876 INSTANCE 
             ELASTIC-HOLD-PLATE-1 D.O.F. 11
  Typically a zero pivot is associated with an overconstraint in the model. 
 However, Abaqus was not able to identify any chains of constraints that might 
 lead to an overconstraint at this node. This suggests that the model might be 
 in fact insufficiently constrained in this particular degree of freedom. 
 Please check the constraints used in this model. 


 ***WARNING: SOLVER PROBLEM.  ZERO PIVOT WHEN PROCESSING NODE 940 INSTANCE 
             ELASTIC-HOLD-PLATE-1 D.O.F. 11
  Typically a zero pivot is associated with an overconstraint in the model. 
 However, Abaqus was not able to identify any chains of constraints that might 
 lead to an overconstraint at this node. This suggests that the model might be 
 in fact insufficiently constrained in this particular degree of freedom. 
 Please check the constraints used in this model. 


 ***WARNING: SOLVER PROBLEM.  ZERO PIVOT WHEN PROCESSING NODE 941 INSTANCE 
             ELASTIC-HOLD-PLATE-1 D.O.F. 11
  Typically a zero pivot is associated with an overconstraint in the model. 
 However, Abaqus was not able to identify any chains of constraints that might 
 lead to an overconstraint at this node. This suggests that the model might be 
 in fact insufficiently constrained in this particular degree of freedom. 
 Please check the constraints used in this model. 


 ***WARNING: SOLVER PROBLEM.  ZERO PIVOT WHEN PROCESSING NODE 942 INSTANCE 
             ELASTIC-HOLD-PLATE-1 D.O.F. 11
  Typically a zero pivot is associated with an overconstraint in the model. 
 However, Abaqus was not able to identify any chains of constraints that might 
 lead to an overconstraint at this node. This suggests that the model might be 
 in fact insufficiently constrained in this particular degree of freedom. 
 Please check the constraints used in this model. 


 ***WARNING: SOLVER PROBLEM.  ZERO PIVOT WHEN PROCESSING NODE 1544 INSTANCE 
             ELASTIC-HOLD-PLATE-1 D.O.F. 11
  Typically a zero pivot is associated with an overconstraint in the model. 
 However, Abaqus was not able to identify any chains of constraints that might 
 lead to an overconstraint at this node. This suggests that the model might be 
 in fact insufficiently constrained in this particular degree of freedom. 
 Please check the constraints used in this model. 


 ***WARNING: SOLVER PROBLEM.  ZERO PIVOT WHEN PROCESSING NODE 1401 INSTANCE 
             ELASTIC-HOLD-PLATE-1 D.O.F. 11
  Typically a zero pivot is associated with an overconstraint in the model. 
 However, Abaqus was not able to identify any chains of constraints that might 
 lead to an overconstraint at this node. This suggests that the model might be 
 in fact insufficiently constrained in this particular degree of freedom. 
 Please check the constraints used in this model. 


 ***WARNING: SOLVER PROBLEM.  ZERO PIVOT WHEN PROCESSING NODE 1528 INSTANCE 
             ELASTIC-HOLD-PLATE-1 D.O.F. 11
  Typically a zero pivot is associated with an overconstraint in the model. 
 However, Abaqus was not able to identify any chains of constraints that might 
 lead to an overconstraint at this node. This suggests that the model might be 
 in fact insufficiently constrained in this particular degree of freedom. 
 Please check the constraints used in this model. 


 ***WARNING: SOLVER PROBLEM.  ZERO PIVOT WHEN PROCESSING NODE 1637 INSTANCE 
             ELASTIC-HOLD-PLATE-1 D.O.F. 11
  Typically a zero pivot is associated with an overconstraint in the model. 
 However, Abaqus was not able to identify any chains of constraints that might 
 lead to an overconstraint at this node. This suggests that the model might be 
 in fact insufficiently constrained in this particular degree of freedom. 
 Please check the constraints used in this model. 


 ***WARNING: SOLVER PROBLEM.  ZERO PIVOT WHEN PROCESSING NODE 1574 INSTANCE 
             ELASTIC-HOLD-PLATE-1 D.O.F. 11
  Typically a zero pivot is associated with an overconstraint in the model. 
 However, Abaqus was not able to identify any chains of constraints that might 
 lead to an overconstraint at this node. This suggests that the model might be 
 in fact insufficiently constrained in this particular degree of freedom. 
 Please check the constraints used in this model. 


 ***WARNING: SOLVER PROBLEM.  ZERO PIVOT WHEN PROCESSING NODE 1382 INSTANCE 
             ELASTIC-HOLD-PLATE-1 D.O.F. 11
  Typically a zero pivot is associated with an overconstraint in the model. 
 However, Abaqus was not able to identify any chains of constraints that might 
 lead to an overconstraint at this node. This suggests that the model might be 
 in fact insufficiently constrained in this particular degree of freedom. 
 Please check the constraints used in this model. 


 ***WARNING: SOLVER PROBLEM.  ZERO PIVOT WHEN PROCESSING NODE 1135 INSTANCE 
             ELASTIC-HOLD-PLATE-1 D.O.F. 11
  Typically a zero pivot is associated with an overconstraint in the model. 
 However, Abaqus was not able to identify any chains of constraints that might 
 lead to an overconstraint at this node. This suggests that the model might be 
 in fact insufficiently constrained in this particular degree of freedom. 
 Please check the constraints used in this model. 


 ***WARNING: SOLVER PROBLEM.  ZERO PIVOT WHEN PROCESSING NODE 1639 INSTANCE 
             ELASTIC-HOLD-PLATE-1 D.O.F. 11
  Typically a zero pivot is associated with an overconstraint in the model. 
 However, Abaqus was not able to identify any chains of constraints that might 
 lead to an overconstraint at this node. This suggests that the model might be 
 in fact insufficiently constrained in this particular degree of freedom. 
 Please check the constraints used in this model. 


 ***WARNING: SOLVER PROBLEM.  ZERO PIVOT WHEN PROCESSING NODE 1468 INSTANCE 
             ELASTIC-HOLD-PLATE-1 D.O.F. 11
  Typically a zero pivot is associated with an overconstraint in the model. 
 However, Abaqus was not able to identify any chains of constraints that might 
 lead to an overconstraint at this node. This suggests that the model might be 
 in fact insufficiently constrained in this particular degree of freedom. 
 Please check the constraints used in this model. 


 ***WARNING: SOLVER PROBLEM.  ZERO PIVOT WHEN PROCESSING NODE 1638 INSTANCE 
             ELASTIC-HOLD-PLATE-1 D.O.F. 11
  Typically a zero pivot is associated with an overconstraint in the model. 
 However, Abaqus was not able to identify any chains of constraints that might 
 lead to an overconstraint at this node. This suggests that the model might be 
 in fact insufficiently constrained in this particular degree of freedom. 
 Please check the constraints used in this model. 


 ***WARNING: SOLVER PROBLEM.  ZERO PIVOT WHEN PROCESSING NODE 1071 INSTANCE 
             ELASTIC-HOLD-PLATE-1 D.O.F. 11
  Typically a zero pivot is associated with an overconstraint in the model. 
 However, Abaqus was not able to identify any chains of constraints that might 
 lead to an overconstraint at this node. This suggests that the model might be 
 in fact insufficiently constrained in this particular degree of freedom. 
 Please check the constraints used in this model. 


 ***WARNING: SOLVER PROBLEM.  ZERO PIVOT WHEN PROCESSING NODE 1137 INSTANCE 
             ELASTIC-HOLD-PLATE-1 D.O.F. 11
  Typically a zero pivot is associated with an overconstraint in the model. 
 However, Abaqus was not able to identify any chains of constraints that might 
 lead to an overconstraint at this node. This suggests that the model might be 
 in fact insufficiently constrained in this particular degree of freedom. 
 Please check the constraints used in this model. 


 ***WARNING: SOLVER PROBLEM.  ZERO PIVOT WHEN PROCESSING NODE 1136 INSTANCE 
             ELASTIC-HOLD-PLATE-1 D.O.F. 11
  Typically a zero pivot is associated with an overconstraint in the model. 
 However, Abaqus was not able to identify any chains of constraints that might 
 lead to an overconstraint at this node. This suggests that the model might be 
 in fact insufficiently constrained in this particular degree of freedom. 
 Please check the constraints used in this model. 


 ***WARNING: SOLVER PROBLEM.  ZERO PIVOT WHEN PROCESSING NODE 1074 INSTANCE 
             ELASTIC-HOLD-PLATE-1 D.O.F. 11
  Typically a zero pivot is associated with an overconstraint in the model. 
 However, Abaqus was not able to identify any chains of constraints that might 
 lead to an overconstraint at this node. This suggests that the model might be 
 in fact insufficiently constrained in this particular degree of freedom. 
 Please check the constraints used in this model. 


 ***WARNING: SOLVER PROBLEM.  ZERO PIVOT WHEN PROCESSING NODE 1004 INSTANCE 
             ELASTIC-HOLD-PLATE-1 D.O.F. 11
  Typically a zero pivot is associated with an overconstraint in the model. 
 However, Abaqus was not able to identify any chains of constraints that might 
 lead to an overconstraint at this node. This suggests that the model might be 
 in fact insufficiently constrained in this particular degree of freedom. 
 Please check the constraints used in this model. 


 ***WARNING: SOLVER PROBLEM.  ZERO PIVOT WHEN PROCESSING NODE 1005 INSTANCE 
             ELASTIC-HOLD-PLATE-1 D.O.F. 11
  Typically a zero pivot is associated with an overconstraint in the model. 
 However, Abaqus was not able to identify any chains of constraints that might 
 lead to an overconstraint at this node. This suggests that the model might be 
 in fact insufficiently constrained in this particular degree of freedom. 
 Please check the constraints used in this model. 


 ***WARNING: SOLVER PROBLEM.  ZERO PIVOT WHEN PROCESSING NODE 1007 INSTANCE 
             ELASTIC-HOLD-PLATE-1 D.O.F. 11
  Typically a zero pivot is associated with an overconstraint in the model. 
 However, Abaqus was not able to identify any chains of constraints that might 
 lead to an overconstraint at this node. This suggests that the model might be 
 in fact insufficiently constrained in this particular degree of freedom. 
 Please check the constraints used in this model. 


 ***WARNING: SOLVER PROBLEM.  ZERO PIVOT WHEN PROCESSING NODE 1008 INSTANCE 
             ELASTIC-HOLD-PLATE-1 D.O.F. 11
  Typically a zero pivot is associated with an overconstraint in the model. 
 However, Abaqus was not able to identify any chains of constraints that might 
 lead to an overconstraint at this node. This suggests that the model might be 
 in fact insufficiently constrained in this particular degree of freedom. 
 Please check the constraints used in this model. 


 ***WARNING: SOLVER PROBLEM.  ZERO PIVOT WHEN PROCESSING NODE 1069 INSTANCE 
             ELASTIC-HOLD-PLATE-1 D.O.F. 11
  Typically a zero pivot is associated with an overconstraint in the model. 
 However, Abaqus was not able to identify any chains of constraints that might 
 lead to an overconstraint at this node. This suggests that the model might be 
 in fact insufficiently constrained in this particular degree of freedom. 
 Please check the constraints used in this model. 


 ***WARNING: SOLVER PROBLEM.  ZERO PIVOT WHEN PROCESSING NODE 1070 INSTANCE 
             ELASTIC-HOLD-PLATE-1 D.O.F. 11
  Typically a zero pivot is associated with an overconstraint in the model. 
 However, Abaqus was not able to identify any chains of constraints that might 
 lead to an overconstraint at this node. This suggests that the model might be 
 in fact insufficiently constrained in this particular degree of freedom. 
 Please check the constraints used in this model. 


 ***WARNING: SOLVER PROBLEM.  ZERO PIVOT WHEN PROCESSING NODE 1072 INSTANCE 
             ELASTIC-HOLD-PLATE-1 D.O.F. 11
  Typically a zero pivot is associated with an overconstraint in the model. 
 However, Abaqus was not able to identify any chains of constraints that might 
 lead to an overconstraint at this node. This suggests that the model might be 
 in fact insufficiently constrained in this particular degree of freedom. 
 Please check the constraints used in this model. 


 ***WARNING: SOLVER PROBLEM.  ZERO PIVOT WHEN PROCESSING NODE 1073 INSTANCE 
             ELASTIC-HOLD-PLATE-1 D.O.F. 11
  Typically a zero pivot is associated with an overconstraint in the model. 
 However, Abaqus was not able to identify any chains of constraints that might 
 lead to an overconstraint at this node. This suggests that the model might be 
 in fact insufficiently constrained in this particular degree of freedom. 
 Please check the constraints used in this model. 


 ***WARNING: SOLVER PROBLEM.  ZERO PIVOT WHEN PROCESSING NODE 1138 INSTANCE 
             ELASTIC-HOLD-PLATE-1 D.O.F. 11
  Typically a zero pivot is associated with an overconstraint in the model. 
 However, Abaqus was not able to identify any chains of constraints that might 
 lead to an overconstraint at this node. This suggests that the model might be 
 in fact insufficiently constrained in this particular degree of freedom. 
 Please check the constraints used in this model. 


 ***WARNING: Solver problem. Zero pivot when processing D.O.F. 11 of 49 nodes. 
             The nodes have been identified in node set 
             WarnNodeSolvProbZeroPiv_11_1_1_1_1.

               CONVERGENCE CHECKS FOR EQUILIBRIUM ITERATION     1


 AVERAGE FORCE                       14.9       TIME AVG. FORCE        14.9    
 LARGEST SCALED RESIDUAL FORCE      9.541E-02   AT NODE        197   DOF  2
   INSTANCE: ELASTIC-HOLD-PLATE-1                                                            
  CORRESPONDING RESIDUAL FORCE      9.541E-02
 LARGEST INCREMENT OF DISP.         2.658E-05   AT NODE       1420   DOF  2
   INSTANCE: ELASTIC-HOLD-PLATE-1                                                            
 LARGEST CORRECTION TO DISP.        2.658E-05   AT NODE       1420   DOF  2
   INSTANCE: ELASTIC-HOLD-PLATE-1                                                            
          FORCE     EQUILIBRIUM NOT ACHIEVED WITHIN TOLERANCE.

 AVERAGE HEAT FLUX                  6.053E-29   TIME AVG. HEAT FLUX   1.000E-02
 LARGEST RESIDUAL HEAT FLUX         2.235E-27   AT NODE       2236   DOF 11
   INSTANCE: ELASTIC-HOLD-PLATE-1                                                            
 LARGEST INCREMENT OF TEMP.        -4.250E-15   AT NODE       2134   DOF 11
   INSTANCE: ELASTIC-HOLD-PLATE-1                                                            
 LARGEST CORRECTION TO TEMP.       -4.250E-15   AT NODE       2134   DOF 11
   INSTANCE: ELASTIC-HOLD-PLATE-1                                                            
          THERE IS ZERO HEAT FLUX EVERYWHERE
 

 ***WARNING: THERE IS ZERO HEAT FLUX EVERYWHERE IN THE MODEL BASED ON THE 
             DEFAULT CRITERION. PLEASE CHECK THE VALUE OF THE AVERAGE HEAT FLUX 
             DURING THE CURRENT ITERATION TO VERIFY THAT THE HEAT FLUX IS SMALL 
             ENOUGH TO BE TREATED AS ZERO. IF NOT, PLEASE USE THE SOLUTION 
             CONTROLS TO RESET THE CRITERION FOR ZERO HEAT FLUX.
 
	UNSYMMETRIC NEW DIRECT SPARSE SOLVER RUNNING ON
 	1 HOST x 1 MPI RANK PER HOST x 1 THREAD PER RANK
        NUMBER OF EQUATIONS:  19344
        NUMBER OF RHS:        1
        NUMBER OF FLOPS:      2.940e+09
        SOLVER ELAPSED TIME:  106ms

               CONVERGENCE CHECKS FOR EQUILIBRIUM ITERATION     2


 AVERAGE FORCE                       14.9       TIME AVG. FORCE        14.9    
 LARGEST SCALED RESIDUAL FORCE     -3.102E-05   AT NODE        131   DOF  2
   INSTANCE: ELASTIC-HOLD-PLATE-1                                                            
  CORRESPONDING RESIDUAL FORCE     -3.102E-05
 LARGEST INCREMENT OF DISP.         2.659E-05   AT NODE       1371   DOF  2
   INSTANCE: ELASTIC-HOLD-PLATE-1                                                            
 LARGEST CORRECTION TO DISP.        1.140E-08   AT NODE         66   DOF  2
   INSTANCE: ELASTIC-HOLD-PLATE-1                                                            
          THE FORCE     EQUILIBRIUM EQUATIONS HAVE CONVERGED

 AVERAGE HEAT FLUX                  7.312E-29   TIME AVG. HEAT FLUX   1.000E-02
 LARGEST RESIDUAL HEAT FLUX         2.806E-27   AT NODE       2212   DOF 11
   INSTANCE: ELASTIC-HOLD-PLATE-1                                                            
 LARGEST INCREMENT OF TEMP.         5.272E-15   AT NODE       3856   DOF 11
   INSTANCE: ELASTIC-HOLD-PLATE-1                                                            
 LARGEST CORRECTION TO TEMP.        4.856E-15   AT NODE        489   DOF 11
   INSTANCE: ELASTIC-HOLD-PLATE-1                                                            
          THERE IS ZERO HEAT FLUX EVERYWHERE
 

 ***WARNING: THERE IS ZERO HEAT FLUX EVERYWHERE IN THE MODEL BASED ON THE 
             DEFAULT CRITERION. PLEASE CHECK THE VALUE OF THE AVERAGE HEAT FLUX 
             DURING THE CURRENT ITERATION TO VERIFY THAT THE HEAT FLUX IS SMALL 
             ENOUGH TO BE TREATED AS ZERO. IF NOT, PLEASE USE THE SOLUTION 
             CONTROLS TO RESET THE CRITERION FOR ZERO HEAT FLUX.

 MAXIMUM NON-PRESCRIBED INCREMENT IN TEMPERATURE IS   5.272E-15

 ITERATION SUMMARY FOR THE INCREMENT:   2 TOTAL ITERATIONS, OF WHICH
   0 ARE SEVERE DISCONTINUITY ITERATIONS AND  2 ARE EQUILIBRIUM ITERATIONS.

 TIME INCREMENT COMPLETED  5.000E+06,  FRACTION OF STEP COMPLETED  5.000E-04
 STEP TIME COMPLETED       5.000E+06,  TOTAL TIME COMPLETED        5.000E+06


  INCREMENT     2 STARTS. ATTEMPT NUMBER  1, TIME INCREMENT  5.000E+06
 
	UNSYMMETRIC NEW DIRECT SPARSE SOLVER RUNNING ON
 	1 HOST x 1 MPI RANK PER HOST x 1 THREAD PER RANK
        NUMBER OF EQUATIONS:  19344
        NUMBER OF RHS:        1
        NUMBER OF FLOPS:      2.940e+09
        SOLVER ELAPSED TIME:  104ms

               CONVERGENCE CHECKS FOR EQUILIBRIUM ITERATION     1


 AVERAGE FORCE                       15.7       TIME AVG. FORCE        15.3    
 LARGEST SCALED RESIDUAL FORCE      0.110       AT NODE       1267   DOF  2
   INSTANCE: ELASTIC-HOLD-PLATE-1                                                            
  CORRESPONDING RESIDUAL FORCE      0.110    
 LARGEST INCREMENT OF DISP.        -1.245E-08   AT NODE       1371   DOF  2
   INSTANCE: ELASTIC-HOLD-PLATE-1                                                            
 LARGEST CORRECTION TO DISP.       -2.661E-05   AT NODE       1371   DOF  2
   INSTANCE: ELASTIC-HOLD-PLATE-1                                                            
          FORCE     EQUILIBRIUM NOT ACHIEVED WITHIN TOLERANCE.

 AVERAGE HEAT FLUX                  1.355E-17   TIME AVG. HEAT FLUX   1.000E-02
 LARGEST RESIDUAL HEAT FLUX         1.240E-17   AT NODE       3424   DOF 11
   INSTANCE: ELASTIC-HOLD-PLATE-1                                                            
 LARGEST INCREMENT OF TEMP.          1.35       AT NODE       3764   DOF 11
   INSTANCE: ELASTIC-HOLD-PLATE-1                                                            
 LARGEST CORRECTION TO TEMP.         1.35       AT NODE       3764   DOF 11
   INSTANCE: ELASTIC-HOLD-PLATE-1                                                            
          THERE IS ZERO HEAT FLUX EVERYWHERE
 

 ***WARNING: THERE IS ZERO HEAT FLUX EVERYWHERE IN THE MODEL BASED ON THE 
             DEFAULT CRITERION. PLEASE CHECK THE VALUE OF THE AVERAGE HEAT FLUX 
             DURING THE CURRENT ITERATION TO VERIFY THAT THE HEAT FLUX IS SMALL 
             ENOUGH TO BE TREATED AS ZERO. IF NOT, PLEASE USE THE SOLUTION 
             CONTROLS TO RESET THE CRITERION FOR ZERO HEAT FLUX.
 
	UNSYMMETRIC NEW DIRECT SPARSE SOLVER RUNNING ON
 	1 HOST x 1 MPI RANK PER HOST x 1 THREAD PER RANK
        NUMBER OF EQUATIONS:  19344
        NUMBER OF RHS:        1
        NUMBER OF FLOPS:      2.940e+09
        SOLVER ELAPSED TIME:  107ms

               CONVERGENCE CHECKS FOR EQUILIBRIUM ITERATION     2


 AVERAGE FORCE                       15.7       TIME AVG. FORCE        15.3    
 LARGEST SCALED RESIDUAL FORCE     -3.587E-05   AT NODE       1267   DOF  2
   INSTANCE: ELASTIC-HOLD-PLATE-1                                                            
  CORRESPONDING RESIDUAL FORCE     -3.587E-05
 LARGEST INCREMENT OF DISP.         1.299E-12   AT NODE       3417   DOF  2
   INSTANCE: ELASTIC-HOLD-PLATE-1                                                            
 LARGEST CORRECTION TO DISP.        1.245E-08   AT NODE       1371   DOF  2
   INSTANCE: ELASTIC-HOLD-PLATE-1                                                            
          FORCE     EQUILIB. ACCEPTED BASED ON SMALL RESIDUAL AND SMALL MAGNITUDE
           OF THE INCREMENT OF DISPLACEMENT

 AVERAGE HEAT FLUX                  1.370E-17   TIME AVG. HEAT FLUX   1.000E-02
 LARGEST RESIDUAL HEAT FLUX        -8.757E-21   AT NODE       3420   DOF 11
   INSTANCE: ELASTIC-HOLD-PLATE-1                                                            
 LARGEST INCREMENT OF TEMP.          1.35       AT NODE       3764   DOF 11
   INSTANCE: ELASTIC-HOLD-PLATE-1                                                            
 LARGEST CORRECTION TO TEMP.        5.986E-04   AT NODE       3487   DOF 11
   INSTANCE: ELASTIC-HOLD-PLATE-1                                                            
          THERE IS ZERO HEAT FLUX EVERYWHERE
 

 ***WARNING: THERE IS ZERO HEAT FLUX EVERYWHERE IN THE MODEL BASED ON THE 
             DEFAULT CRITERION. PLEASE CHECK THE VALUE OF THE AVERAGE HEAT FLUX 
             DURING THE CURRENT ITERATION TO VERIFY THAT THE HEAT FLUX IS SMALL 
             ENOUGH TO BE TREATED AS ZERO. IF NOT, PLEASE USE THE SOLUTION 
             CONTROLS TO RESET THE CRITERION FOR ZERO HEAT FLUX.

 MAXIMUM NON-PRESCRIBED INCREMENT IN TEMPERATURE IS    1.35    

 ITERATION SUMMARY FOR THE INCREMENT:   2 TOTAL ITERATIONS, OF WHICH
   0 ARE SEVERE DISCONTINUITY ITERATIONS AND  2 ARE EQUILIBRIUM ITERATIONS.

 TIME INCREMENT COMPLETED  5.000E+06,  FRACTION OF STEP COMPLETED  1.000E-03
 STEP TIME COMPLETED       1.000E+07,  TOTAL TIME COMPLETED        1.000E+07


  INCREMENT     3 STARTS. ATTEMPT NUMBER  1, TIME INCREMENT  5.000E+06
 
	UNSYMMETRIC NEW DIRECT SPARSE SOLVER RUNNING ON
 	1 HOST x 1 MPI RANK PER HOST x 1 THREAD PER RANK
        NUMBER OF EQUATIONS:  19344
        NUMBER OF RHS:        1
        NUMBER OF FLOPS:      2.940e+09
        SOLVER ELAPSED TIME:  104ms

               CONVERGENCE CHECKS FOR EQUILIBRIUM ITERATION     1


 AVERAGE FORCE                       15.7       TIME AVG. FORCE        15.4    
 LARGEST SCALED RESIDUAL FORCE      1.103E-08   AT NODE       1274   DOF  2
   INSTANCE: ELASTIC-HOLD-PLATE-1                                                            
  CORRESPONDING RESIDUAL FORCE      1.103E-08
 LARGEST INCREMENT OF DISP.        -4.696E-12   AT NODE       1371   DOF  2
   INSTANCE: ELASTIC-HOLD-PLATE-1                                                            
 LARGEST CORRECTION TO DISP.       -5.294E-12   AT NODE       1353   DOF  2
   INSTANCE: ELASTIC-HOLD-PLATE-1                                                            
          THE FORCE     EQUILIBRIUM RESPONSE WAS LINEAR IN THIS INCREMENT

 AVERAGE HEAT FLUX                  1.404E-18   TIME AVG. HEAT FLUX   1.000E-02
 LARGEST RESIDUAL HEAT FLUX        -1.712E-23   AT NODE       4238   DOF 11
   INSTANCE: ELASTIC-HOLD-PLATE-1                                                            
 LARGEST INCREMENT OF TEMP.         1.156E-02   AT NODE       3716   DOF 11
   INSTANCE: ELASTIC-HOLD-PLATE-1                                                            
 LARGEST CORRECTION TO TEMP.        -1.33       AT NODE       3764   DOF 11
   INSTANCE: ELASTIC-HOLD-PLATE-1                                                            
          THERE IS ZERO HEAT FLUX EVERYWHERE
 

 ***WARNING: THERE IS ZERO HEAT FLUX EVERYWHERE IN THE MODEL BASED ON THE 
             DEFAULT CRITERION. PLEASE CHECK THE VALUE OF THE AVERAGE HEAT FLUX 
             DURING THE CURRENT ITERATION TO VERIFY THAT THE HEAT FLUX IS SMALL 
             ENOUGH TO BE TREATED AS ZERO. IF NOT, PLEASE USE THE SOLUTION 
             CONTROLS TO RESET THE CRITERION FOR ZERO HEAT FLUX.

 MAXIMUM NON-PRESCRIBED INCREMENT IN TEMPERATURE IS   1.156E-02
          TIME INCREMENT MAY NOW INCREASE TO    1.000E+07

 ITERATION SUMMARY FOR THE INCREMENT:   1 TOTAL ITERATIONS, OF WHICH
   0 ARE SEVERE DISCONTINUITY ITERATIONS AND  1 ARE EQUILIBRIUM ITERATIONS.

 TIME INCREMENT COMPLETED  5.000E+06,  FRACTION OF STEP COMPLETED  1.500E-03
 STEP TIME COMPLETED       1.500E+07,  TOTAL TIME COMPLETED        1.500E+07


  INCREMENT     4 STARTS. ATTEMPT NUMBER  1, TIME INCREMENT  1.000E+07
 
	UNSYMMETRIC NEW DIRECT SPARSE SOLVER RUNNING ON
 	1 HOST x 1 MPI RANK PER HOST x 1 THREAD PER RANK
        NUMBER OF EQUATIONS:  19344
        NUMBER OF RHS:        1
        NUMBER OF FLOPS:      2.940e+09
        SOLVER ELAPSED TIME:  109ms

               CONVERGENCE CHECKS FOR EQUILIBRIUM ITERATION     1


 AVERAGE FORCE                       15.7       TIME AVG. FORCE        15.5    
 LARGEST SCALED RESIDUAL FORCE     -1.849E-08   AT NODE       1269   DOF  2
   INSTANCE: ELASTIC-HOLD-PLATE-1                                                            
  CORRESPONDING RESIDUAL FORCE     -1.849E-08
 LARGEST INCREMENT OF DISP.         3.815E-15   AT NODE       1371   DOF  2
   INSTANCE: ELASTIC-HOLD-PLATE-1                                                            
 LARGEST CORRECTION TO DISP.        9.395E-12   AT NODE       1371   DOF  2
   INSTANCE: ELASTIC-HOLD-PLATE-1                                                            
          THE FORCE     EQUILIBRIUM RESPONSE WAS LINEAR IN THIS INCREMENT

 AVERAGE HEAT FLUX                  3.729E-19   TIME AVG. HEAT FLUX   1.000E-02
 LARGEST RESIDUAL HEAT FLUX         9.012E-24   AT NODE       4172   DOF 11
   INSTANCE: ELASTIC-HOLD-PLATE-1                                                            
 LARGEST INCREMENT OF TEMP.        -1.024E-03   AT NODE       1300   DOF 11
   INSTANCE: ELASTIC-HOLD-PLATE-1                                                            
 LARGEST CORRECTION TO TEMP.       -2.282E-02   AT NODE       3716   DOF 11
   INSTANCE: ELASTIC-HOLD-PLATE-1                                                            
          THERE IS ZERO HEAT FLUX EVERYWHERE
 

 ***WARNING: THERE IS ZERO HEAT FLUX EVERYWHERE IN THE MODEL BASED ON THE 
             DEFAULT CRITERION. PLEASE CHECK THE VALUE OF THE AVERAGE HEAT FLUX 
             DURING THE CURRENT ITERATION TO VERIFY THAT THE HEAT FLUX IS SMALL 
             ENOUGH TO BE TREATED AS ZERO. IF NOT, PLEASE USE THE SOLUTION 
             CONTROLS TO RESET THE CRITERION FOR ZERO HEAT FLUX.

 MAXIMUM NON-PRESCRIBED INCREMENT IN TEMPERATURE IS  -1.024E-03

 ITERATION SUMMARY FOR THE INCREMENT:   1 TOTAL ITERATIONS, OF WHICH
   0 ARE SEVERE DISCONTINUITY ITERATIONS AND  1 ARE EQUILIBRIUM ITERATIONS.

 TIME INCREMENT COMPLETED  1.000E+07,  FRACTION OF STEP COMPLETED  2.500E-03
 STEP TIME COMPLETED       2.500E+07,  TOTAL TIME COMPLETED        2.500E+07


  INCREMENT     5 STARTS. ATTEMPT NUMBER  1, TIME INCREMENT  1.000E+07
 
	UNSYMMETRIC NEW DIRECT SPARSE SOLVER RUNNING ON
 	1 HOST x 1 MPI RANK PER HOST x 1 THREAD PER RANK
        NUMBER OF EQUATIONS:  19344
        NUMBER OF RHS:        1
        NUMBER OF FLOPS:      2.940e+09
        SOLVER ELAPSED TIME:  104ms

               CONVERGENCE CHECKS FOR EQUILIBRIUM ITERATION     1


 AVERAGE FORCE                       15.7       TIME AVG. FORCE        15.6    
 LARGEST SCALED RESIDUAL FORCE      1.955E-11   AT NODE       4173   DOF  2
   INSTANCE: ELASTIC-HOLD-PLATE-1                                                            
  CORRESPONDING RESIDUAL FORCE      1.955E-11
 LARGEST INCREMENT OF DISP.        -2.422E-15   AT NODE       1371   DOF  2
   INSTANCE: ELASTIC-HOLD-PLATE-1                                                            
 LARGEST CORRECTION TO DISP.       -6.237E-15   AT NODE       1371   DOF  2
   INSTANCE: ELASTIC-HOLD-PLATE-1                                                            
          THE FORCE     EQUILIBRIUM RESPONSE WAS LINEAR IN THIS INCREMENT

 AVERAGE HEAT FLUX                  2.429E-19   TIME AVG. HEAT FLUX   1.000E-02
 LARGEST RESIDUAL HEAT FLUX        -1.256E-26   AT NODE       4238   DOF 11
   INSTANCE: ELASTIC-HOLD-PLATE-1                                                            
 LARGEST INCREMENT OF TEMP.         1.813E-04   AT NODE       2092   DOF 11
   INSTANCE: ELASTIC-HOLD-PLATE-1                                                            
 LARGEST CORRECTION TO TEMP.        9.173E-04   AT NODE       1334   DOF 11
   INSTANCE: ELASTIC-HOLD-PLATE-1                                                            
          THERE IS ZERO HEAT FLUX EVERYWHERE
 

 ***WARNING: THERE IS ZERO HEAT FLUX EVERYWHERE IN THE MODEL BASED ON THE 
             DEFAULT CRITERION. PLEASE CHECK THE VALUE OF THE AVERAGE HEAT FLUX 
             DURING THE CURRENT ITERATION TO VERIFY THAT THE HEAT FLUX IS SMALL 
             ENOUGH TO BE TREATED AS ZERO. IF NOT, PLEASE USE THE SOLUTION 
             CONTROLS TO RESET THE CRITERION FOR ZERO HEAT FLUX.

 MAXIMUM NON-PRESCRIBED INCREMENT IN TEMPERATURE IS   1.813E-04

 ITERATION SUMMARY FOR THE INCREMENT:   1 TOTAL ITERATIONS, OF WHICH
   0 ARE SEVERE DISCONTINUITY ITERATIONS AND  1 ARE EQUILIBRIUM ITERATIONS.

 TIME INCREMENT COMPLETED  1.000E+07,  FRACTION OF STEP COMPLETED  3.500E-03
 STEP TIME COMPLETED       3.500E+07,  TOTAL TIME COMPLETED        3.500E+07


  INCREMENT     6 STARTS. ATTEMPT NUMBER  1, TIME INCREMENT  1.000E+07
 
	UNSYMMETRIC NEW DIRECT SPARSE SOLVER RUNNING ON
 	1 HOST x 1 MPI RANK PER HOST x 1 THREAD PER RANK
        NUMBER OF EQUATIONS:  19344
        NUMBER OF RHS:        1
        NUMBER OF FLOPS:      2.940e+09
        SOLVER ELAPSED TIME:  110ms

               CONVERGENCE CHECKS FOR EQUILIBRIUM ITERATION     1


 AVERAGE FORCE                       15.7       TIME AVG. FORCE        15.6    
 LARGEST SCALED RESIDUAL FORCE     -6.771E-12   AT NODE       4173   DOF  2
   INSTANCE: ELASTIC-HOLD-PLATE-1                                                            
  CORRESPONDING RESIDUAL FORCE     -6.771E-12
 LARGEST INCREMENT OF DISP.         2.298E-18   AT NODE       1371   DOF  2
   INSTANCE: ELASTIC-HOLD-PLATE-1                                                            
 LARGEST CORRECTION TO DISP.        2.425E-15   AT NODE       1371   DOF  2
   INSTANCE: ELASTIC-HOLD-PLATE-1                                                            
          THE FORCE     EQUILIBRIUM RESPONSE WAS LINEAR IN THIS INCREMENT

 AVERAGE HEAT FLUX                  2.143E-19   TIME AVG. HEAT FLUX   1.000E-02
 LARGEST RESIDUAL HEAT FLUX         4.382E-27   AT NODE       4238   DOF 11
   INSTANCE: ELASTIC-HOLD-PLATE-1                                                            
 LARGEST INCREMENT OF TEMP.         4.574E-05   AT NODE       2094   DOF 11
   INSTANCE: ELASTIC-HOLD-PLATE-1                                                            
 LARGEST CORRECTION TO TEMP.       -1.356E-04   AT NODE       2005   DOF 11
   INSTANCE: ELASTIC-HOLD-PLATE-1                                                            
          THERE IS ZERO HEAT FLUX EVERYWHERE
 

 ***WARNING: THERE IS ZERO HEAT FLUX EVERYWHERE IN THE MODEL BASED ON THE 
             DEFAULT CRITERION. PLEASE CHECK THE VALUE OF THE AVERAGE HEAT FLUX 
             DURING THE CURRENT ITERATION TO VERIFY THAT THE HEAT FLUX IS SMALL 
             ENOUGH TO BE TREATED AS ZERO. IF NOT, PLEASE USE THE SOLUTION 
             CONTROLS TO RESET THE CRITERION FOR ZERO HEAT FLUX.

 MAXIMUM NON-PRESCRIBED INCREMENT IN TEMPERATURE IS   4.574E-05

 ITERATION SUMMARY FOR THE INCREMENT:   1 TOTAL ITERATIONS, OF WHICH
   0 ARE SEVERE DISCONTINUITY ITERATIONS AND  1 ARE EQUILIBRIUM ITERATIONS.

 TIME INCREMENT COMPLETED  1.000E+07,  FRACTION OF STEP COMPLETED  4.500E-03
 STEP TIME COMPLETED       4.500E+07,  TOTAL TIME COMPLETED        4.500E+07


  INCREMENT     7 STARTS. ATTEMPT NUMBER  1, TIME INCREMENT  1.000E+07
 
	UNSYMMETRIC NEW DIRECT SPARSE SOLVER RUNNING ON
 	1 HOST x 1 MPI RANK PER HOST x 1 THREAD PER RANK
        NUMBER OF EQUATIONS:  19344
        NUMBER OF RHS:        1
        NUMBER OF FLOPS:      2.940e+09
        SOLVER ELAPSED TIME:  110ms

               CONVERGENCE CHECKS FOR EQUILIBRIUM ITERATION     1


 AVERAGE FORCE                       15.7       TIME AVG. FORCE        15.6    
 LARGEST SCALED RESIDUAL FORCE     -1.023E-12   AT NODE        446   DOF  2
   INSTANCE: ELASTIC-HOLD-PLATE-1                                                            
  CORRESPONDING RESIDUAL FORCE     -1.023E-12
 LARGEST INCREMENT OF DISP.        -6.409E-19   AT NODE       1371   DOF  2
   INSTANCE: ELASTIC-HOLD-PLATE-1                                                            
 LARGEST CORRECTION TO DISP.       -2.939E-18   AT NODE       1371   DOF  2
   INSTANCE: ELASTIC-HOLD-PLATE-1                                                            
          THE FORCE     EQUILIBRIUM RESPONSE WAS LINEAR IN THIS INCREMENT

 AVERAGE HEAT FLUX                  2.073E-19   TIME AVG. HEAT FLUX   1.000E-02
 LARGEST RESIDUAL HEAT FLUX        -3.490E-27   AT NODE        443   DOF 11
   INSTANCE: ELASTIC-HOLD-PLATE-1                                                            
 LARGEST INCREMENT OF TEMP.         1.136E-05   AT NODE       2092   DOF 11
   INSTANCE: ELASTIC-HOLD-PLATE-1                                                            
 LARGEST CORRECTION TO TEMP.       -3.438E-05   AT NODE       2094   DOF 11
   INSTANCE: ELASTIC-HOLD-PLATE-1                                                            
          THERE IS ZERO HEAT FLUX EVERYWHERE
 

 ***WARNING: THERE IS ZERO HEAT FLUX EVERYWHERE IN THE MODEL BASED ON THE 
             DEFAULT CRITERION. PLEASE CHECK THE VALUE OF THE AVERAGE HEAT FLUX 
             DURING THE CURRENT ITERATION TO VERIFY THAT THE HEAT FLUX IS SMALL 
             ENOUGH TO BE TREATED AS ZERO. IF NOT, PLEASE USE THE SOLUTION 
             CONTROLS TO RESET THE CRITERION FOR ZERO HEAT FLUX.

 MAXIMUM NON-PRESCRIBED INCREMENT IN TEMPERATURE IS   1.136E-05

 ITERATION SUMMARY FOR THE INCREMENT:   1 TOTAL ITERATIONS, OF WHICH
   0 ARE SEVERE DISCONTINUITY ITERATIONS AND  1 ARE EQUILIBRIUM ITERATIONS.

 TIME INCREMENT COMPLETED  1.000E+07,  FRACTION OF STEP COMPLETED  5.500E-03
 STEP TIME COMPLETED       5.500E+07,  TOTAL TIME COMPLETED        5.500E+07


  INCREMENT     8 STARTS. ATTEMPT NUMBER  1, TIME INCREMENT  1.000E+07
 
	UNSYMMETRIC NEW DIRECT SPARSE SOLVER RUNNING ON
 	1 HOST x 1 MPI RANK PER HOST x 1 THREAD PER RANK
        NUMBER OF EQUATIONS:  19344
        NUMBER OF RHS:        1
        NUMBER OF FLOPS:      2.940e+09
        SOLVER ELAPSED TIME:  110ms

               CONVERGENCE CHECKS FOR EQUILIBRIUM ITERATION     1


 AVERAGE FORCE                       15.7       TIME AVG. FORCE        15.6    
 LARGEST SCALED RESIDUAL FORCE      8.669E-13   AT NODE        218   DOF  2
   INSTANCE: ELASTIC-HOLD-PLATE-1                                                            
  CORRESPONDING RESIDUAL FORCE      8.669E-13
 LARGEST INCREMENT OF DISP.        -1.700E-20   AT NODE         66   DOF  1
   INSTANCE: ELASTIC-HOLD-PLATE-1                                                            
 LARGEST CORRECTION TO DISP.        6.401E-19   AT NODE       1341   DOF  2
   INSTANCE: ELASTIC-HOLD-PLATE-1                                                            
          THE FORCE     EQUILIBRIUM RESPONSE WAS LINEAR IN THIS INCREMENT

 AVERAGE HEAT FLUX                  2.056E-19   TIME AVG. HEAT FLUX   1.000E-02
 LARGEST RESIDUAL HEAT FLUX         3.453E-27   AT NODE       2262   DOF 11
   INSTANCE: ELASTIC-HOLD-PLATE-1                                                            
 LARGEST INCREMENT OF TEMP.         2.860E-06   AT NODE       1783   DOF 11
   INSTANCE: ELASTIC-HOLD-PLATE-1                                                            
 LARGEST CORRECTION TO TEMP.       -8.502E-06   AT NODE       2092   DOF 11
   INSTANCE: ELASTIC-HOLD-PLATE-1                                                            
          THERE IS ZERO HEAT FLUX EVERYWHERE
 

 ***WARNING: THERE IS ZERO HEAT FLUX EVERYWHERE IN THE MODEL BASED ON THE 
             DEFAULT CRITERION. PLEASE CHECK THE VALUE OF THE AVERAGE HEAT FLUX 
             DURING THE CURRENT ITERATION TO VERIFY THAT THE HEAT FLUX IS SMALL 
             ENOUGH TO BE TREATED AS ZERO. IF NOT, PLEASE USE THE SOLUTION 
             CONTROLS TO RESET THE CRITERION FOR ZERO HEAT FLUX.

 MAXIMUM NON-PRESCRIBED INCREMENT IN TEMPERATURE IS   2.860E-06

 ITERATION SUMMARY FOR THE INCREMENT:   1 TOTAL ITERATIONS, OF WHICH
   0 ARE SEVERE DISCONTINUITY ITERATIONS AND  1 ARE EQUILIBRIUM ITERATIONS.

 TIME INCREMENT COMPLETED  1.000E+07,  FRACTION OF STEP COMPLETED  6.500E-03
 STEP TIME COMPLETED       6.500E+07,  TOTAL TIME COMPLETED        6.500E+07


  INCREMENT     9 STARTS. ATTEMPT NUMBER  1, TIME INCREMENT  1.000E+07
 
	UNSYMMETRIC NEW DIRECT SPARSE SOLVER RUNNING ON
 	1 HOST x 1 MPI RANK PER HOST x 1 THREAD PER RANK
        NUMBER OF EQUATIONS:  19344
        NUMBER OF RHS:        1
        NUMBER OF FLOPS:      2.940e+09
        SOLVER ELAPSED TIME:  109ms

               CONVERGENCE CHECKS FOR EQUILIBRIUM ITERATION     1


 AVERAGE FORCE                       15.7       TIME AVG. FORCE        15.6    
 LARGEST SCALED RESIDUAL FORCE      9.948E-14   AT NODE        512   DOF  2
   INSTANCE: ELASTIC-HOLD-PLATE-1                                                            
  CORRESPONDING RESIDUAL FORCE      9.948E-14
 LARGEST INCREMENT OF DISP.        -5.618E-21   AT NODE         51   DOF  2
   INSTANCE: ELASTIC-HOLD-PLATE-1                                                            
 LARGEST CORRECTION TO DISP.        2.057E-20   AT NODE         66   DOF  1
   INSTANCE: ELASTIC-HOLD-PLATE-1                                                            
          THE FORCE     EQUILIBRIUM RESPONSE WAS LINEAR IN THIS INCREMENT

 AVERAGE HEAT FLUX                  2.051E-19   TIME AVG. HEAT FLUX   1.000E-02
 LARGEST RESIDUAL HEAT FLUX         2.981E-27   AT NODE        278   DOF 11
   INSTANCE: ELASTIC-HOLD-PLATE-1                                                            
 LARGEST INCREMENT OF TEMP.         7.307E-07   AT NODE       2094   DOF 11
   INSTANCE: ELASTIC-HOLD-PLATE-1                                                            
 LARGEST CORRECTION TO TEMP.       -2.129E-06   AT NODE       1783   DOF 11
   INSTANCE: ELASTIC-HOLD-PLATE-1                                                            
          THERE IS ZERO HEAT FLUX EVERYWHERE
 

 ***WARNING: THERE IS ZERO HEAT FLUX EVERYWHERE IN THE MODEL BASED ON THE 
             DEFAULT CRITERION. PLEASE CHECK THE VALUE OF THE AVERAGE HEAT FLUX 
             DURING THE CURRENT ITERATION TO VERIFY THAT THE HEAT FLUX IS SMALL 
             ENOUGH TO BE TREATED AS ZERO. IF NOT, PLEASE USE THE SOLUTION 
             CONTROLS TO RESET THE CRITERION FOR ZERO HEAT FLUX.

 MAXIMUM NON-PRESCRIBED INCREMENT IN TEMPERATURE IS   7.307E-07

 ITERATION SUMMARY FOR THE INCREMENT:   1 TOTAL ITERATIONS, OF WHICH
   0 ARE SEVERE DISCONTINUITY ITERATIONS AND  1 ARE EQUILIBRIUM ITERATIONS.

 TIME INCREMENT COMPLETED  1.000E+07,  FRACTION OF STEP COMPLETED  7.500E-03
 STEP TIME COMPLETED       7.500E+07,  TOTAL TIME COMPLETED        7.500E+07


  INCREMENT    10 STARTS. ATTEMPT NUMBER  1, TIME INCREMENT  1.000E+07
 
	UNSYMMETRIC NEW DIRECT SPARSE SOLVER RUNNING ON
 	1 HOST x 1 MPI RANK PER HOST x 1 THREAD PER RANK
        NUMBER OF EQUATIONS:  19344
        NUMBER OF RHS:        1
        NUMBER OF FLOPS:      2.940e+09
        SOLVER ELAPSED TIME:  115ms

               CONVERGENCE CHECKS FOR EQUILIBRIUM ITERATION     1


 AVERAGE FORCE                       15.7       TIME AVG. FORCE        15.6    
 LARGEST SCALED RESIDUAL FORCE     -1.350E-13   AT NODE        200   DOF  2
   INSTANCE: ELASTIC-HOLD-PLATE-1                                                            
  CORRESPONDING RESIDUAL FORCE     -1.350E-13
 LARGEST INCREMENT OF DISP.         2.233E-21   AT NODE        196   DOF  2
   INSTANCE: ELASTIC-HOLD-PLATE-1                                                            
 LARGEST CORRECTION TO DISP.        7.661E-21   AT NODE         51   DOF  2
   INSTANCE: ELASTIC-HOLD-PLATE-1                                                            
          THE FORCE     EQUILIBRIUM RESPONSE WAS LINEAR IN THIS INCREMENT

 AVERAGE HEAT FLUX                  2.051E-19   TIME AVG. HEAT FLUX   1.000E-02
 LARGEST RESIDUAL HEAT FLUX        -3.178E-27   AT NODE       1758   DOF 11
   INSTANCE: ELASTIC-HOLD-PLATE-1                                                            
 LARGEST INCREMENT OF TEMP.         1.890E-07   AT NODE       2092   DOF 11
   INSTANCE: ELASTIC-HOLD-PLATE-1                                                            
 LARGEST CORRECTION TO TEMP.       -5.417E-07   AT NODE       2094   DOF 11
   INSTANCE: ELASTIC-HOLD-PLATE-1                                                            
          THERE IS ZERO HEAT FLUX EVERYWHERE
 

 ***WARNING: THERE IS ZERO HEAT FLUX EVERYWHERE IN THE MODEL BASED ON THE 
             DEFAULT CRITERION. PLEASE CHECK THE VALUE OF THE AVERAGE HEAT FLUX 
             DURING THE CURRENT ITERATION TO VERIFY THAT THE HEAT FLUX IS SMALL 
             ENOUGH TO BE TREATED AS ZERO. IF NOT, PLEASE USE THE SOLUTION 
             CONTROLS TO RESET THE CRITERION FOR ZERO HEAT FLUX.

 MAXIMUM NON-PRESCRIBED INCREMENT IN TEMPERATURE IS   1.890E-07

 ITERATION SUMMARY FOR THE INCREMENT:   1 TOTAL ITERATIONS, OF WHICH
   0 ARE SEVERE DISCONTINUITY ITERATIONS AND  1 ARE EQUILIBRIUM ITERATIONS.

 TIME INCREMENT COMPLETED  1.000E+07,  FRACTION OF STEP COMPLETED  8.500E-03
 STEP TIME COMPLETED       8.500E+07,  TOTAL TIME COMPLETED        8.500E+07


  INCREMENT    11 STARTS. ATTEMPT NUMBER  1, TIME INCREMENT  1.000E+07
 
	UNSYMMETRIC NEW DIRECT SPARSE SOLVER RUNNING ON
 	1 HOST x 1 MPI RANK PER HOST x 1 THREAD PER RANK
        NUMBER OF EQUATIONS:  19344
        NUMBER OF RHS:        1
        NUMBER OF FLOPS:      2.940e+09
        SOLVER ELAPSED TIME:  115ms

               CONVERGENCE CHECKS FOR EQUILIBRIUM ITERATION     1


 AVERAGE FORCE                       15.7       TIME AVG. FORCE        15.7    
 LARGEST SCALED RESIDUAL FORCE      8.527E-14   AT NODE        647   DOF  2
   INSTANCE: ELASTIC-HOLD-PLATE-1                                                            
  CORRESPONDING RESIDUAL FORCE      8.527E-14
 LARGEST INCREMENT OF DISP.         2.937E-21   AT NODE       1403   DOF  2
   INSTANCE: ELASTIC-HOLD-PLATE-1                                                            
 LARGEST CORRECTION TO DISP.        4.620E-21   AT NODE       1254   DOF  2
   INSTANCE: ELASTIC-HOLD-PLATE-1                                                            
          THE FORCE     EQUILIBRIUM RESPONSE WAS LINEAR IN THIS INCREMENT

 AVERAGE HEAT FLUX                  2.050E-19   TIME AVG. HEAT FLUX   1.000E-02
 LARGEST RESIDUAL HEAT FLUX         3.116E-27   AT NODE       1743   DOF 11
   INSTANCE: ELASTIC-HOLD-PLATE-1                                                            
 LARGEST INCREMENT OF TEMP.         4.931E-08   AT NODE       1783   DOF 11
   INSTANCE: ELASTIC-HOLD-PLATE-1                                                            
 LARGEST CORRECTION TO TEMP.       -1.396E-07   AT NODE       2092   DOF 11
   INSTANCE: ELASTIC-HOLD-PLATE-1                                                            
          THERE IS ZERO HEAT FLUX EVERYWHERE
 

 ***WARNING: THERE IS ZERO HEAT FLUX EVERYWHERE IN THE MODEL BASED ON THE 
             DEFAULT CRITERION. PLEASE CHECK THE VALUE OF THE AVERAGE HEAT FLUX 
             DURING THE CURRENT ITERATION TO VERIFY THAT THE HEAT FLUX IS SMALL 
             ENOUGH TO BE TREATED AS ZERO. IF NOT, PLEASE USE THE SOLUTION 
             CONTROLS TO RESET THE CRITERION FOR ZERO HEAT FLUX.

 MAXIMUM NON-PRESCRIBED INCREMENT IN TEMPERATURE IS   4.931E-08

 ITERATION SUMMARY FOR THE INCREMENT:   1 TOTAL ITERATIONS, OF WHICH
   0 ARE SEVERE DISCONTINUITY ITERATIONS AND  1 ARE EQUILIBRIUM ITERATIONS.

 TIME INCREMENT COMPLETED  1.000E+07,  FRACTION OF STEP COMPLETED  9.500E-03
 STEP TIME COMPLETED       9.500E+07,  TOTAL TIME COMPLETED        9.500E+07


  INCREMENT    12 STARTS. ATTEMPT NUMBER  1, TIME INCREMENT  1.000E+07
 
	UNSYMMETRIC NEW DIRECT SPARSE SOLVER RUNNING ON
 	1 HOST x 1 MPI RANK PER HOST x 1 THREAD PER RANK
        NUMBER OF EQUATIONS:  19344
        NUMBER OF RHS:        1
        NUMBER OF FLOPS:      2.940e+09
        SOLVER ELAPSED TIME:  105ms

               CONVERGENCE CHECKS FOR EQUILIBRIUM ITERATION     1


 AVERAGE FORCE                       15.7       TIME AVG. FORCE        15.7    
 LARGEST SCALED RESIDUAL FORCE     -1.066E-13   AT NODE       1280   DOF  2
   INSTANCE: ELASTIC-HOLD-PLATE-1                                                            
  CORRESPONDING RESIDUAL FORCE     -1.066E-13
 LARGEST INCREMENT OF DISP.        -7.180E-22   AT NODE       1502   DOF  2
   INSTANCE: ELASTIC-HOLD-PLATE-1                                                            
 LARGEST CORRECTION TO DISP.       -3.602E-21   AT NODE       1500   DOF  2
   INSTANCE: ELASTIC-HOLD-PLATE-1                                                            
          THE FORCE     EQUILIBRIUM RESPONSE WAS LINEAR IN THIS INCREMENT

 AVERAGE HEAT FLUX                  2.050E-19   TIME AVG. HEAT FLUX   1.000E-02
 LARGEST RESIDUAL HEAT FLUX         3.294E-27   AT NODE        332   DOF 11
   INSTANCE: ELASTIC-HOLD-PLATE-1                                                            
 LARGEST INCREMENT OF TEMP.         1.296E-08   AT NODE       1783   DOF 11
   INSTANCE: ELASTIC-HOLD-PLATE-1                                                            
 LARGEST CORRECTION TO TEMP.       -3.635E-08   AT NODE       2094   DOF 11
   INSTANCE: ELASTIC-HOLD-PLATE-1                                                            
          THERE IS ZERO HEAT FLUX EVERYWHERE
 

 ***WARNING: THERE IS ZERO HEAT FLUX EVERYWHERE IN THE MODEL BASED ON THE 
             DEFAULT CRITERION. PLEASE CHECK THE VALUE OF THE AVERAGE HEAT FLUX 
             DURING THE CURRENT ITERATION TO VERIFY THAT THE HEAT FLUX IS SMALL 
             ENOUGH TO BE TREATED AS ZERO. IF NOT, PLEASE USE THE SOLUTION 
             CONTROLS TO RESET THE CRITERION FOR ZERO HEAT FLUX.

 MAXIMUM NON-PRESCRIBED INCREMENT IN TEMPERATURE IS   1.296E-08

 ITERATION SUMMARY FOR THE INCREMENT:   1 TOTAL ITERATIONS, OF WHICH
   0 ARE SEVERE DISCONTINUITY ITERATIONS AND  1 ARE EQUILIBRIUM ITERATIONS.

 TIME INCREMENT COMPLETED  1.000E+07,  FRACTION OF STEP COMPLETED  1.050E-02
 STEP TIME COMPLETED       1.050E+08,  TOTAL TIME COMPLETED        1.050E+08


  INCREMENT    13 STARTS. ATTEMPT NUMBER  1, TIME INCREMENT  1.000E+07
 
	UNSYMMETRIC NEW DIRECT SPARSE SOLVER RUNNING ON
 	1 HOST x 1 MPI RANK PER HOST x 1 THREAD PER RANK
        NUMBER OF EQUATIONS:  19344
        NUMBER OF RHS:        1
        NUMBER OF FLOPS:      2.940e+09
        SOLVER ELAPSED TIME:  117ms

               CONVERGENCE CHECKS FOR EQUILIBRIUM ITERATION     1


 AVERAGE FORCE                       15.7       TIME AVG. FORCE        15.7    
 LARGEST SCALED RESIDUAL FORCE      8.527E-14   AT NODE       1115   DOF  2
   INSTANCE: ELASTIC-HOLD-PLATE-1                                                            
  CORRESPONDING RESIDUAL FORCE      8.527E-14
 LARGEST INCREMENT OF DISP.        -2.640E-21   AT NODE       1435   DOF  2
   INSTANCE: ELASTIC-HOLD-PLATE-1                                                            
 LARGEST CORRECTION TO DISP.       -3.142E-21   AT NODE       1329   DOF  2
   INSTANCE: ELASTIC-HOLD-PLATE-1                                                            
          THE FORCE     EQUILIBRIUM RESPONSE WAS LINEAR IN THIS INCREMENT

 AVERAGE HEAT FLUX                  2.050E-19   TIME AVG. HEAT FLUX   1.000E-02
 LARGEST RESIDUAL HEAT FLUX         2.810E-27   AT NODE       1696   DOF 11
   INSTANCE: ELASTIC-HOLD-PLATE-1                                                            
 LARGEST INCREMENT OF TEMP.         3.427E-09   AT NODE       2094   DOF 11
   INSTANCE: ELASTIC-HOLD-PLATE-1                                                            
 LARGEST CORRECTION TO TEMP.       -9.535E-09   AT NODE       1783   DOF 11
   INSTANCE: ELASTIC-HOLD-PLATE-1                                                            
          THERE IS ZERO HEAT FLUX EVERYWHERE
 

 ***WARNING: THERE IS ZERO HEAT FLUX EVERYWHERE IN THE MODEL BASED ON THE 
             DEFAULT CRITERION. PLEASE CHECK THE VALUE OF THE AVERAGE HEAT FLUX 
             DURING THE CURRENT ITERATION TO VERIFY THAT THE HEAT FLUX IS SMALL 
             ENOUGH TO BE TREATED AS ZERO. IF NOT, PLEASE USE THE SOLUTION 
             CONTROLS TO RESET THE CRITERION FOR ZERO HEAT FLUX.

 MAXIMUM NON-PRESCRIBED INCREMENT IN TEMPERATURE IS   3.427E-09

 ITERATION SUMMARY FOR THE INCREMENT:   1 TOTAL ITERATIONS, OF WHICH
   0 ARE SEVERE DISCONTINUITY ITERATIONS AND  1 ARE EQUILIBRIUM ITERATIONS.

 TIME INCREMENT COMPLETED  1.000E+07,  FRACTION OF STEP COMPLETED  1.150E-02
 STEP TIME COMPLETED       1.150E+08,  TOTAL TIME COMPLETED        1.150E+08


  INCREMENT    14 STARTS. ATTEMPT NUMBER  1, TIME INCREMENT  1.000E+07
 
	UNSYMMETRIC NEW DIRECT SPARSE SOLVER RUNNING ON
 	1 HOST x 1 MPI RANK PER HOST x 1 THREAD PER RANK
        NUMBER OF EQUATIONS:  19344
        NUMBER OF RHS:        1
        NUMBER OF FLOPS:      2.940e+09
        SOLVER ELAPSED TIME:  111ms

               CONVERGENCE CHECKS FOR EQUILIBRIUM ITERATION     1


 AVERAGE FORCE                       15.7       TIME AVG. FORCE        15.7    
 LARGEST SCALED RESIDUAL FORCE      1.066E-13   AT NODE       1682   DOF  2
   INSTANCE: ELASTIC-HOLD-PLATE-1                                                            
  CORRESPONDING RESIDUAL FORCE      1.066E-13
 LARGEST INCREMENT OF DISP.         2.282E-21   AT NODE       1403   DOF  2
   INSTANCE: ELASTIC-HOLD-PLATE-1                                                            
 LARGEST CORRECTION TO DISP.        4.817E-21   AT NODE       1686   DOF  2
   INSTANCE: ELASTIC-HOLD-PLATE-1                                                            
          THE FORCE     EQUILIBRIUM RESPONSE WAS LINEAR IN THIS INCREMENT

 AVERAGE HEAT FLUX                  2.050E-19   TIME AVG. HEAT FLUX   1.000E-02
 LARGEST RESIDUAL HEAT FLUX         2.829E-27   AT NODE       1750   DOF 11
   INSTANCE: ELASTIC-HOLD-PLATE-1                                                            
 LARGEST INCREMENT OF TEMP.         9.101E-10   AT NODE       1783   DOF 11
   INSTANCE: ELASTIC-HOLD-PLATE-1                                                            
 LARGEST CORRECTION TO TEMP.       -2.516E-09   AT NODE       2094   DOF 11
   INSTANCE: ELASTIC-HOLD-PLATE-1                                                            
          THERE IS ZERO HEAT FLUX EVERYWHERE
 

 ***WARNING: THERE IS ZERO HEAT FLUX EVERYWHERE IN THE MODEL BASED ON THE 
             DEFAULT CRITERION. PLEASE CHECK THE VALUE OF THE AVERAGE HEAT FLUX 
             DURING THE CURRENT ITERATION TO VERIFY THAT THE HEAT FLUX IS SMALL 
             ENOUGH TO BE TREATED AS ZERO. IF NOT, PLEASE USE THE SOLUTION 
             CONTROLS TO RESET THE CRITERION FOR ZERO HEAT FLUX.

 MAXIMUM NON-PRESCRIBED INCREMENT IN TEMPERATURE IS   9.101E-10

 ITERATION SUMMARY FOR THE INCREMENT:   1 TOTAL ITERATIONS, OF WHICH
   0 ARE SEVERE DISCONTINUITY ITERATIONS AND  1 ARE EQUILIBRIUM ITERATIONS.

 TIME INCREMENT COMPLETED  1.000E+07,  FRACTION OF STEP COMPLETED  1.250E-02
 STEP TIME COMPLETED       1.250E+08,  TOTAL TIME COMPLETED        1.250E+08


  INCREMENT    15 STARTS. ATTEMPT NUMBER  1, TIME INCREMENT  1.000E+07
 
	UNSYMMETRIC NEW DIRECT SPARSE SOLVER RUNNING ON
 	1 HOST x 1 MPI RANK PER HOST x 1 THREAD PER RANK
        NUMBER OF EQUATIONS:  19344
        NUMBER OF RHS:        1
        NUMBER OF FLOPS:      2.940e+09
        SOLVER ELAPSED TIME:  103ms

               CONVERGENCE CHECKS FOR EQUILIBRIUM ITERATION     1


 AVERAGE FORCE                       15.7       TIME AVG. FORCE        15.7    
 LARGEST SCALED RESIDUAL FORCE      9.948E-14   AT NODE        467   DOF  2
   INSTANCE: ELASTIC-HOLD-PLATE-1                                                            
  CORRESPONDING RESIDUAL FORCE      9.948E-14
 LARGEST INCREMENT OF DISP.         1.179E-21   AT NODE        285   DOF  2
   INSTANCE: ELASTIC-HOLD-PLATE-1                                                            
 LARGEST CORRECTION TO DISP.        2.819E-21   AT NODE          7   DOF  2
   INSTANCE: ELASTIC-HOLD-PLATE-1                                                            
          THE FORCE     EQUILIBRIUM RESPONSE WAS LINEAR IN THIS INCREMENT

 AVERAGE HEAT FLUX                  2.050E-19   TIME AVG. HEAT FLUX   1.000E-02
 LARGEST RESIDUAL HEAT FLUX        -2.883E-27   AT NODE       2159   DOF 11
   INSTANCE: ELASTIC-HOLD-PLATE-1                                                            
 LARGEST INCREMENT OF TEMP.         2.427E-10   AT NODE       2092   DOF 11
   INSTANCE: ELASTIC-HOLD-PLATE-1                                                            
 LARGEST CORRECTION TO TEMP.       -6.674E-10   AT NODE       1783   DOF 11
   INSTANCE: ELASTIC-HOLD-PLATE-1                                                            
          THERE IS ZERO HEAT FLUX EVERYWHERE
 

 ***WARNING: THERE IS ZERO HEAT FLUX EVERYWHERE IN THE MODEL BASED ON THE 
             DEFAULT CRITERION. PLEASE CHECK THE VALUE OF THE AVERAGE HEAT FLUX 
             DURING THE CURRENT ITERATION TO VERIFY THAT THE HEAT FLUX IS SMALL 
             ENOUGH TO BE TREATED AS ZERO. IF NOT, PLEASE USE THE SOLUTION 
             CONTROLS TO RESET THE CRITERION FOR ZERO HEAT FLUX.

 MAXIMUM NON-PRESCRIBED INCREMENT IN TEMPERATURE IS   2.427E-10

 ITERATION SUMMARY FOR THE INCREMENT:   1 TOTAL ITERATIONS, OF WHICH
   0 ARE SEVERE DISCONTINUITY ITERATIONS AND  1 ARE EQUILIBRIUM ITERATIONS.

 TIME INCREMENT COMPLETED  1.000E+07,  FRACTION OF STEP COMPLETED  1.350E-02
 STEP TIME COMPLETED       1.350E+08,  TOTAL TIME COMPLETED        1.350E+08


  INCREMENT    16 STARTS. ATTEMPT NUMBER  1, TIME INCREMENT  1.000E+07
 
	UNSYMMETRIC NEW DIRECT SPARSE SOLVER RUNNING ON
 	1 HOST x 1 MPI RANK PER HOST x 1 THREAD PER RANK
        NUMBER OF EQUATIONS:  19344
        NUMBER OF RHS:        1
        NUMBER OF FLOPS:      2.940e+09
        SOLVER ELAPSED TIME:  105ms

               CONVERGENCE CHECKS FOR EQUILIBRIUM ITERATION     1


 AVERAGE FORCE                       15.7       TIME AVG. FORCE        15.7    
 LARGEST SCALED RESIDUAL FORCE     -8.527E-14   AT NODE        101   DOF  2
   INSTANCE: ELASTIC-HOLD-PLATE-1                                                            
  CORRESPONDING RESIDUAL FORCE     -8.527E-14
 LARGEST INCREMENT OF DISP.        -2.266E-21   AT NODE       1193   DOF  2
   INSTANCE: ELASTIC-HOLD-PLATE-1                                                            
 LARGEST CORRECTION TO DISP.       -3.051E-21   AT NODE       1371   DOF  2
   INSTANCE: ELASTIC-HOLD-PLATE-1                                                            
          THE FORCE     EQUILIBRIUM RESPONSE WAS LINEAR IN THIS INCREMENT

 AVERAGE HEAT FLUX                  2.050E-19   TIME AVG. HEAT FLUX   1.000E-02
 LARGEST RESIDUAL HEAT FLUX        -2.797E-27   AT NODE       1630   DOF 11
   INSTANCE: ELASTIC-HOLD-PLATE-1                                                            
 LARGEST INCREMENT OF TEMP.         6.494E-11   AT NODE       1783   DOF 11
   INSTANCE: ELASTIC-HOLD-PLATE-1                                                            
 LARGEST CORRECTION TO TEMP.       -1.778E-10   AT NODE       2092   DOF 11
   INSTANCE: ELASTIC-HOLD-PLATE-1                                                            
          THERE IS ZERO HEAT FLUX EVERYWHERE
 

 ***WARNING: THERE IS ZERO HEAT FLUX EVERYWHERE IN THE MODEL BASED ON THE 
             DEFAULT CRITERION. PLEASE CHECK THE VALUE OF THE AVERAGE HEAT FLUX 
             DURING THE CURRENT ITERATION TO VERIFY THAT THE HEAT FLUX IS SMALL 
             ENOUGH TO BE TREATED AS ZERO. IF NOT, PLEASE USE THE SOLUTION 
             CONTROLS TO RESET THE CRITERION FOR ZERO HEAT FLUX.

 MAXIMUM NON-PRESCRIBED INCREMENT IN TEMPERATURE IS   6.494E-11

 ITERATION SUMMARY FOR THE INCREMENT:   1 TOTAL ITERATIONS, OF WHICH
   0 ARE SEVERE DISCONTINUITY ITERATIONS AND  1 ARE EQUILIBRIUM ITERATIONS.

 TIME INCREMENT COMPLETED  1.000E+07,  FRACTION OF STEP COMPLETED  1.450E-02
 STEP TIME COMPLETED       1.450E+08,  TOTAL TIME COMPLETED        1.450E+08


  INCREMENT    17 STARTS. ATTEMPT NUMBER  1, TIME INCREMENT  1.000E+07
 
	UNSYMMETRIC NEW DIRECT SPARSE SOLVER RUNNING ON
 	1 HOST x 1 MPI RANK PER HOST x 1 THREAD PER RANK
        NUMBER OF EQUATIONS:  19344
        NUMBER OF RHS:        1
        NUMBER OF FLOPS:      2.940e+09
        SOLVER ELAPSED TIME:  103ms

               CONVERGENCE CHECKS FOR EQUILIBRIUM ITERATION     1


 AVERAGE FORCE                       15.7       TIME AVG. FORCE        15.7    
 LARGEST SCALED RESIDUAL FORCE      9.948E-14   AT NODE       1772   DOF  2
   INSTANCE: ELASTIC-HOLD-PLATE-1                                                            
  CORRESPONDING RESIDUAL FORCE      9.948E-14
 LARGEST INCREMENT OF DISP.         2.643E-21   AT NODE         64   DOF  2
   INSTANCE: ELASTIC-HOLD-PLATE-1                                                            
 LARGEST CORRECTION TO DISP.        4.232E-21   AT NODE        858   DOF  2
   INSTANCE: ELASTIC-HOLD-PLATE-1                                                            
          THE FORCE     EQUILIBRIUM RESPONSE WAS LINEAR IN THIS INCREMENT

 AVERAGE HEAT FLUX                  2.050E-19   TIME AVG. HEAT FLUX   1.000E-02
 LARGEST RESIDUAL HEAT FLUX        -2.968E-27   AT NODE       2258   DOF 11
   INSTANCE: ELASTIC-HOLD-PLATE-1                                                            
 LARGEST INCREMENT OF TEMP.         1.742E-11   AT NODE       1783   DOF 11
   INSTANCE: ELASTIC-HOLD-PLATE-1                                                            
 LARGEST CORRECTION TO TEMP.       -4.752E-11   AT NODE       2092   DOF 11
   INSTANCE: ELASTIC-HOLD-PLATE-1                                                            
          THERE IS ZERO HEAT FLUX EVERYWHERE
 

 ***WARNING: THERE IS ZERO HEAT FLUX EVERYWHERE IN THE MODEL BASED ON THE 
             DEFAULT CRITERION. PLEASE CHECK THE VALUE OF THE AVERAGE HEAT FLUX 
             DURING THE CURRENT ITERATION TO VERIFY THAT THE HEAT FLUX IS SMALL 
             ENOUGH TO BE TREATED AS ZERO. IF NOT, PLEASE USE THE SOLUTION 
             CONTROLS TO RESET THE CRITERION FOR ZERO HEAT FLUX.

 MAXIMUM NON-PRESCRIBED INCREMENT IN TEMPERATURE IS   1.742E-11

 ITERATION SUMMARY FOR THE INCREMENT:   1 TOTAL ITERATIONS, OF WHICH
   0 ARE SEVERE DISCONTINUITY ITERATIONS AND  1 ARE EQUILIBRIUM ITERATIONS.

 TIME INCREMENT COMPLETED  1.000E+07,  FRACTION OF STEP COMPLETED  1.550E-02
 STEP TIME COMPLETED       1.550E+08,  TOTAL TIME COMPLETED        1.550E+08


  INCREMENT    18 STARTS. ATTEMPT NUMBER  1, TIME INCREMENT  1.000E+07
 
	UNSYMMETRIC NEW DIRECT SPARSE SOLVER RUNNING ON
 	1 HOST x 1 MPI RANK PER HOST x 1 THREAD PER RANK
        NUMBER OF EQUATIONS:  19344
        NUMBER OF RHS:        1
        NUMBER OF FLOPS:      2.940e+09
        SOLVER ELAPSED TIME:  105ms

               CONVERGENCE CHECKS FOR EQUILIBRIUM ITERATION     1


 AVERAGE FORCE                       15.7       TIME AVG. FORCE        15.7    
 LARGEST SCALED RESIDUAL FORCE     -9.237E-14   AT NODE        218   DOF  2
   INSTANCE: ELASTIC-HOLD-PLATE-1                                                            
  CORRESPONDING RESIDUAL FORCE     -9.237E-14
 LARGEST INCREMENT OF DISP.         1.272E-21   AT NODE         64   DOF  1
   INSTANCE: ELASTIC-HOLD-PLATE-1                                                            
 LARGEST CORRECTION TO DISP.       -3.614E-21   AT NODE         64   DOF  2
   INSTANCE: ELASTIC-HOLD-PLATE-1                                                            
          THE FORCE     EQUILIBRIUM RESPONSE WAS LINEAR IN THIS INCREMENT

 AVERAGE HEAT FLUX                  2.050E-19   TIME AVG. HEAT FLUX   1.000E-02
 LARGEST RESIDUAL HEAT FLUX        -3.220E-27   AT NODE       1727   DOF 11
   INSTANCE: ELASTIC-HOLD-PLATE-1                                                            
 LARGEST INCREMENT OF TEMP.         4.692E-12   AT NODE       2092   DOF 11
   INSTANCE: ELASTIC-HOLD-PLATE-1                                                            
 LARGEST CORRECTION TO TEMP.       -1.274E-11   AT NODE       1783   DOF 11
   INSTANCE: ELASTIC-HOLD-PLATE-1                                                            
          THERE IS ZERO HEAT FLUX EVERYWHERE
 

 ***WARNING: THERE IS ZERO HEAT FLUX EVERYWHERE IN THE MODEL BASED ON THE 
             DEFAULT CRITERION. PLEASE CHECK THE VALUE OF THE AVERAGE HEAT FLUX 
             DURING THE CURRENT ITERATION TO VERIFY THAT THE HEAT FLUX IS SMALL 
             ENOUGH TO BE TREATED AS ZERO. IF NOT, PLEASE USE THE SOLUTION 
             CONTROLS TO RESET THE CRITERION FOR ZERO HEAT FLUX.

 MAXIMUM NON-PRESCRIBED INCREMENT IN TEMPERATURE IS   4.692E-12

 ITERATION SUMMARY FOR THE INCREMENT:   1 TOTAL ITERATIONS, OF WHICH
   0 ARE SEVERE DISCONTINUITY ITERATIONS AND  1 ARE EQUILIBRIUM ITERATIONS.

 TIME INCREMENT COMPLETED  1.000E+07,  FRACTION OF STEP COMPLETED  1.650E-02
 STEP TIME COMPLETED       1.650E+08,  TOTAL TIME COMPLETED        1.650E+08


  INCREMENT    19 STARTS. ATTEMPT NUMBER  1, TIME INCREMENT  1.000E+07
 
	UNSYMMETRIC NEW DIRECT SPARSE SOLVER RUNNING ON
 	1 HOST x 1 MPI RANK PER HOST x 1 THREAD PER RANK
        NUMBER OF EQUATIONS:  19344
        NUMBER OF RHS:        1
[...]
 STEP TIME COMPLETED       3.850E+08,  TOTAL TIME COMPLETED        3.850E+08


  INCREMENT    41 STARTS. ATTEMPT NUMBER  1, TIME INCREMENT  1.000E+07
 
	UNSYMMETRIC NEW DIRECT SPARSE SOLVER RUNNING ON
 	1 HOST x 1 MPI RANK PER HOST x 1 THREAD PER RANK
        NUMBER OF EQUATIONS:  19344
        NUMBER OF RHS:        1
        NUMBER OF FLOPS:      2.940e+09
        SOLVER ELAPSED TIME:  109ms

               CONVERGENCE CHECKS FOR EQUILIBRIUM ITERATION     1


 AVERAGE FORCE                       15.7       TIME AVG. FORCE        15.7    
 LARGEST SCALED RESIDUAL FORCE     -1.563E-13   AT NODE       1650   DOF  2
   INSTANCE: ELASTIC-HOLD-PLATE-1                                                            
  CORRESPONDING RESIDUAL FORCE     -1.563E-13
 LARGEST INCREMENT OF DISP.        -1.925E-21   AT NODE         81   DOF  2
   INSTANCE: ELASTIC-HOLD-PLATE-1                                                            
 LARGEST CORRECTION TO DISP.       -4.246E-21   AT NODE         47   DOF  2
   INSTANCE: ELASTIC-HOLD-PLATE-1                                                            
          THE FORCE     EQUILIBRIUM RESPONSE WAS LINEAR IN THIS INCREMENT

 AVERAGE HEAT FLUX                  2.050E-19   TIME AVG. HEAT FLUX   1.000E-02
 LARGEST RESIDUAL HEAT FLUX        -3.392E-27   AT NODE       1670   DOF 11
   INSTANCE: ELASTIC-HOLD-PLATE-1                                                            
 LARGEST INCREMENT OF TEMP.        -6.865E-15   AT NODE       1371   DOF 11
   INSTANCE: ELASTIC-HOLD-PLATE-1                                                            
 LARGEST CORRECTION TO TEMP.       -1.229E-14   AT NODE       1416   DOF 11
   INSTANCE: ELASTIC-HOLD-PLATE-1                                                            
          THERE IS ZERO HEAT FLUX EVERYWHERE
 

 ***WARNING: THERE IS ZERO HEAT FLUX EVERYWHERE IN THE MODEL BASED ON THE 
             DEFAULT CRITERION. PLEASE CHECK THE VALUE OF THE AVERAGE HEAT FLUX 
             DURING THE CURRENT ITERATION TO VERIFY THAT THE HEAT FLUX IS SMALL 
             ENOUGH TO BE TREATED AS ZERO. IF NOT, PLEASE USE THE SOLUTION 
             CONTROLS TO RESET THE CRITERION FOR ZERO HEAT FLUX.

 MAXIMUM NON-PRESCRIBED INCREMENT IN TEMPERATURE IS  -6.865E-15

 ITERATION SUMMARY FOR THE INCREMENT:   1 TOTAL ITERATIONS, OF WHICH
   0 ARE SEVERE DISCONTINUITY ITERATIONS AND  1 ARE EQUILIBRIUM ITERATIONS.

 TIME INCREMENT COMPLETED  1.000E+07,  FRACTION OF STEP COMPLETED  3.950E-02
 STEP TIME COMPLETED       3.950E+08,  TOTAL TIME COMPLETED        3.950E+08


  INCREMENT    42 STARTS. ATTEMPT NUMBER  1, TIME INCREMENT  1.000E+07
 
	UNSYMMETRIC NEW DIRECT SPARSE SOLVER RUNNING ON
 	1 HOST x 1 MPI RANK PER HOST x 1 THREAD PER RANK
        NUMBER OF EQUATIONS:  19344
        NUMBER OF RHS:        1
        NUMBER OF FLOPS:      2.940e+09
        SOLVER ELAPSED TIME:  110ms

               CONVERGENCE CHECKS FOR EQUILIBRIUM ITERATION     1


 AVERAGE FORCE                       15.7       TIME AVG. FORCE        15.7    
 LARGEST SCALED RESIDUAL FORCE     -8.527E-14   AT NODE       1651   DOF  2
   INSTANCE: ELASTIC-HOLD-PLATE-1                                                            
  CORRESPONDING RESIDUAL FORCE     -8.527E-14
 LARGEST INCREMENT OF DISP.        -1.611E-21   AT NODE         64   DOF  2
   INSTANCE: ELASTIC-HOLD-PLATE-1                                                            
 LARGEST CORRECTION TO DISP.        2.082E-21   AT NODE        140   DOF  2
   INSTANCE: ELASTIC-HOLD-PLATE-1                                                            
          THE FORCE     EQUILIBRIUM RESPONSE WAS LINEAR IN THIS INCREMENT

 AVERAGE HEAT FLUX                  2.050E-19   TIME AVG. HEAT FLUX   1.000E-02
 LARGEST RESIDUAL HEAT FLUX         3.477E-27   AT NODE       1632   DOF 11
   INSTANCE: ELASTIC-HOLD-PLATE-1                                                            
 LARGEST INCREMENT OF TEMP.        -6.839E-15   AT NODE       1787   DOF 11
   INSTANCE: ELASTIC-HOLD-PLATE-1                                                            
 LARGEST CORRECTION TO TEMP.       -1.294E-14   AT NODE       1787   DOF 11
   INSTANCE: ELASTIC-HOLD-PLATE-1                                                            
          THERE IS ZERO HEAT FLUX EVERYWHERE
 

 ***WARNING: THERE IS ZERO HEAT FLUX EVERYWHERE IN THE MODEL BASED ON THE 
             DEFAULT CRITERION. PLEASE CHECK THE VALUE OF THE AVERAGE HEAT FLUX 
             DURING THE CURRENT ITERATION TO VERIFY THAT THE HEAT FLUX IS SMALL 
             ENOUGH TO BE TREATED AS ZERO. IF NOT, PLEASE USE THE SOLUTION 
             CONTROLS TO RESET THE CRITERION FOR ZERO HEAT FLUX.

 MAXIMUM NON-PRESCRIBED INCREMENT IN TEMPERATURE IS  -6.839E-15

 ITERATION SUMMARY FOR THE INCREMENT:   1 TOTAL ITERATIONS, OF WHICH
   0 ARE SEVERE DISCONTINUITY ITERATIONS AND  1 ARE EQUILIBRIUM ITERATIONS.

 TIME INCREMENT COMPLETED  1.000E+07,  FRACTION OF STEP COMPLETED  4.050E-02
 STEP TIME COMPLETED       4.050E+08,  TOTAL TIME COMPLETED        4.050E+08


  INCREMENT    43 STARTS. ATTEMPT NUMBER  1, TIME INCREMENT  1.000E+07
 
	UNSYMMETRIC NEW DIRECT SPARSE SOLVER RUNNING ON
 	1 HOST x 1 MPI RANK PER HOST x 1 THREAD PER RANK
        NUMBER OF EQUATIONS:  19344
        NUMBER OF RHS:        1
        NUMBER OF FLOPS:      2.940e+09
        SOLVER ELAPSED TIME:  108ms

               CONVERGENCE CHECKS FOR EQUILIBRIUM ITERATION     1


 AVERAGE FORCE                       15.7       TIME AVG. FORCE        15.7    
 LARGEST SCALED RESIDUAL FORCE     -9.948E-14   AT NODE       1278   DOF  2
   INSTANCE: ELASTIC-HOLD-PLATE-1                                                            
  CORRESPONDING RESIDUAL FORCE     -9.948E-14
 LARGEST INCREMENT OF DISP.        -8.571E-22   AT NODE       1124   DOF  2
   INSTANCE: ELASTIC-HOLD-PLATE-1                                                            
 LARGEST CORRECTION TO DISP.        1.885E-21   AT NODE         38   DOF  2
   INSTANCE: ELASTIC-HOLD-PLATE-1                                                            
          THE FORCE     EQUILIBRIUM RESPONSE WAS LINEAR IN THIS INCREMENT

 AVERAGE HEAT FLUX                  2.050E-19   TIME AVG. HEAT FLUX   1.000E-02
 LARGEST RESIDUAL HEAT FLUX        -3.145E-27   AT NODE       2187   DOF 11
   INSTANCE: ELASTIC-HOLD-PLATE-1                                                            
 LARGEST INCREMENT OF TEMP.         6.183E-15   AT NODE       1891   DOF 11
   INSTANCE: ELASTIC-HOLD-PLATE-1                                                            
 LARGEST CORRECTION TO TEMP.       -1.154E-14   AT NODE       1640   DOF 11
   INSTANCE: ELASTIC-HOLD-PLATE-1                                                            
          THERE IS ZERO HEAT FLUX EVERYWHERE
 

 ***WARNING: THERE IS ZERO HEAT FLUX EVERYWHERE IN THE MODEL BASED ON THE 
             DEFAULT CRITERION. PLEASE CHECK THE VALUE OF THE AVERAGE HEAT FLUX 
             DURING THE CURRENT ITERATION TO VERIFY THAT THE HEAT FLUX IS SMALL 
             ENOUGH TO BE TREATED AS ZERO. IF NOT, PLEASE USE THE SOLUTION 
             CONTROLS TO RESET THE CRITERION FOR ZERO HEAT FLUX.

 MAXIMUM NON-PRESCRIBED INCREMENT IN TEMPERATURE IS   6.183E-15

 ITERATION SUMMARY FOR THE INCREMENT:   1 TOTAL ITERATIONS, OF WHICH
   0 ARE SEVERE DISCONTINUITY ITERATIONS AND  1 ARE EQUILIBRIUM ITERATIONS.

 TIME INCREMENT COMPLETED  1.000E+07,  FRACTION OF STEP COMPLETED  4.150E-02
 STEP TIME COMPLETED       4.150E+08,  TOTAL TIME COMPLETED        4.150E+08


  INCREMENT    44 STARTS. ATTEMPT NUMBER  1, TIME INCREMENT  1.000E+07
 
	UNSYMMETRIC NEW DIRECT SPARSE SOLVER RUNNING ON
 	1 HOST x 1 MPI RANK PER HOST x 1 THREAD PER RANK
        NUMBER OF EQUATIONS:  19344
        NUMBER OF RHS:        1
        NUMBER OF FLOPS:      2.940e+09
        SOLVER ELAPSED TIME:  114ms

               CONVERGENCE CHECKS FOR EQUILIBRIUM ITERATION     1


 AVERAGE FORCE                       15.7       TIME AVG. FORCE        15.7    
 LARGEST SCALED RESIDUAL FORCE      7.816E-14   AT NODE       1157   DOF  2
   INSTANCE: ELASTIC-HOLD-PLATE-1                                                            
  CORRESPONDING RESIDUAL FORCE      7.816E-14
 LARGEST INCREMENT OF DISP.        -2.592E-21   AT NODE       1418   DOF  2
   INSTANCE: ELASTIC-HOLD-PLATE-1                                                            
 LARGEST CORRECTION TO DISP.       -2.991E-21   AT NODE       1418   DOF  2
   INSTANCE: ELASTIC-HOLD-PLATE-1                                                            
          THE FORCE     EQUILIBRIUM RESPONSE WAS LINEAR IN THIS INCREMENT

 AVERAGE HEAT FLUX                  2.050E-19   TIME AVG. HEAT FLUX   1.000E-02
 LARGEST RESIDUAL HEAT FLUX        -3.760E-27   AT NODE       1758   DOF 11
   INSTANCE: ELASTIC-HOLD-PLATE-1                                                            
 LARGEST INCREMENT OF TEMP.         6.140E-15   AT NODE        723   DOF 11
   INSTANCE: ELASTIC-HOLD-PLATE-1                                                            
 LARGEST CORRECTION TO TEMP.        1.147E-14   AT NODE        723   DOF 11
   INSTANCE: ELASTIC-HOLD-PLATE-1                                                            
          THERE IS ZERO HEAT FLUX EVERYWHERE
 

 ***WARNING: THERE IS ZERO HEAT FLUX EVERYWHERE IN THE MODEL BASED ON THE 
             DEFAULT CRITERION. PLEASE CHECK THE VALUE OF THE AVERAGE HEAT FLUX 
             DURING THE CURRENT ITERATION TO VERIFY THAT THE HEAT FLUX IS SMALL 
             ENOUGH TO BE TREATED AS ZERO. IF NOT, PLEASE USE THE SOLUTION 
             CONTROLS TO RESET THE CRITERION FOR ZERO HEAT FLUX.

 MAXIMUM NON-PRESCRIBED INCREMENT IN TEMPERATURE IS   6.140E-15

 ITERATION SUMMARY FOR THE INCREMENT:   1 TOTAL ITERATIONS, OF WHICH
   0 ARE SEVERE DISCONTINUITY ITERATIONS AND  1 ARE EQUILIBRIUM ITERATIONS.

 TIME INCREMENT COMPLETED  1.000E+07,  FRACTION OF STEP COMPLETED  4.250E-02
 STEP TIME COMPLETED       4.250E+08,  TOTAL TIME COMPLETED        4.250E+08


  INCREMENT    45 STARTS. ATTEMPT NUMBER  1, TIME INCREMENT  1.000E+07
 
	UNSYMMETRIC NEW DIRECT SPARSE SOLVER RUNNING ON
 	1 HOST x 1 MPI RANK PER HOST x 1 THREAD PER RANK
        NUMBER OF EQUATIONS:  19344
        NUMBER OF RHS:        1
        NUMBER OF FLOPS:      2.940e+09
        SOLVER ELAPSED TIME:  108ms

               CONVERGENCE CHECKS FOR EQUILIBRIUM ITERATION     1


 AVERAGE FORCE                       15.7       TIME AVG. FORCE        15.7    
 LARGEST SCALED RESIDUAL FORCE      9.948E-14   AT NODE        773   DOF  2
   INSTANCE: ELASTIC-HOLD-PLATE-1                                                            
  CORRESPONDING RESIDUAL FORCE      9.948E-14
 LARGEST INCREMENT OF DISP.         1.408E-21   AT NODE         37   DOF  2
   INSTANCE: ELASTIC-HOLD-PLATE-1                                                            
 LARGEST CORRECTION TO DISP.        2.623E-21   AT NODE       1352   DOF  2
   INSTANCE: ELASTIC-HOLD-PLATE-1                                                            
          THE FORCE     EQUILIBRIUM RESPONSE WAS LINEAR IN THIS INCREMENT

 AVERAGE HEAT FLUX                  2.050E-19   TIME AVG. HEAT FLUX   1.000E-02
 LARGEST RESIDUAL HEAT FLUX        -2.727E-27   AT NODE        416   DOF 11
   INSTANCE: ELASTIC-HOLD-PLATE-1                                                            
 LARGEST INCREMENT OF TEMP.        -7.428E-15   AT NODE       1850   DOF 11
   INSTANCE: ELASTIC-HOLD-PLATE-1                                                            
 LARGEST CORRECTION TO TEMP.       -1.280E-14   AT NODE       1850   DOF 11
   INSTANCE: ELASTIC-HOLD-PLATE-1                                                            
          THERE IS ZERO HEAT FLUX EVERYWHERE
 

 ***WARNING: THERE IS ZERO HEAT FLUX EVERYWHERE IN THE MODEL BASED ON THE 
             DEFAULT CRITERION. PLEASE CHECK THE VALUE OF THE AVERAGE HEAT FLUX 
             DURING THE CURRENT ITERATION TO VERIFY THAT THE HEAT FLUX IS SMALL 
             ENOUGH TO BE TREATED AS ZERO. IF NOT, PLEASE USE THE SOLUTION 
             CONTROLS TO RESET THE CRITERION FOR ZERO HEAT FLUX.

 MAXIMUM NON-PRESCRIBED INCREMENT IN TEMPERATURE IS  -7.428E-15

 ITERATION SUMMARY FOR THE INCREMENT:   1 TOTAL ITERATIONS, OF WHICH
   0 ARE SEVERE DISCONTINUITY ITERATIONS AND  1 ARE EQUILIBRIUM ITERATIONS.

 TIME INCREMENT COMPLETED  1.000E+07,  FRACTION OF STEP COMPLETED  4.350E-02
 STEP TIME COMPLETED       4.350E+08,  TOTAL TIME COMPLETED        4.350E+08


  INCREMENT    46 STARTS. ATTEMPT NUMBER  1, TIME INCREMENT  1.000E+07
 
	UNSYMMETRIC NEW DIRECT SPARSE SOLVER RUNNING ON
 	1 HOST x 1 MPI RANK PER HOST x 1 THREAD PER RANK
        NUMBER OF EQUATIONS:  19344
        NUMBER OF RHS:        1
        NUMBER OF FLOPS:      2.940e+09
        SOLVER ELAPSED TIME:  106ms

               CONVERGENCE CHECKS FOR EQUILIBRIUM ITERATION     1


 AVERAGE FORCE                       15.7       TIME AVG. FORCE        15.7    
 LARGEST SCALED RESIDUAL FORCE      7.816E-14   AT NODE        422   DOF  2
   INSTANCE: ELASTIC-HOLD-PLATE-1                                                            
  CORRESPONDING RESIDUAL FORCE      7.816E-14
 LARGEST INCREMENT OF DISP.         2.263E-21   AT NODE         60   DOF  2
   INSTANCE: ELASTIC-HOLD-PLATE-1                                                            
 LARGEST CORRECTION TO DISP.        1.362E-21   AT NODE         60   DOF  2
   INSTANCE: ELASTIC-HOLD-PLATE-1                                                            
          THE FORCE     EQUILIBRIUM RESPONSE WAS LINEAR IN THIS INCREMENT

 AVERAGE HEAT FLUX                  2.050E-19   TIME AVG. HEAT FLUX   1.000E-02
 LARGEST RESIDUAL HEAT FLUX         2.504E-27   AT NODE       1704   DOF 11
   INSTANCE: ELASTIC-HOLD-PLATE-1                                                            
 LARGEST INCREMENT OF TEMP.        -6.364E-15   AT NODE       1574   DOF 11
   INSTANCE: ELASTIC-HOLD-PLATE-1                                                            
 LARGEST CORRECTION TO TEMP.       -1.211E-14   AT NODE       2122   DOF 11
   INSTANCE: ELASTIC-HOLD-PLATE-1                                                            
          THERE IS ZERO HEAT FLUX EVERYWHERE
 

 ***WARNING: THERE IS ZERO HEAT FLUX EVERYWHERE IN THE MODEL BASED ON THE 
             DEFAULT CRITERION. PLEASE CHECK THE VALUE OF THE AVERAGE HEAT FLUX 
             DURING THE CURRENT ITERATION TO VERIFY THAT THE HEAT FLUX IS SMALL 
             ENOUGH TO BE TREATED AS ZERO. IF NOT, PLEASE USE THE SOLUTION 
             CONTROLS TO RESET THE CRITERION FOR ZERO HEAT FLUX.

 MAXIMUM NON-PRESCRIBED INCREMENT IN TEMPERATURE IS  -6.364E-15

 ITERATION SUMMARY FOR THE INCREMENT:   1 TOTAL ITERATIONS, OF WHICH
   0 ARE SEVERE DISCONTINUITY ITERATIONS AND  1 ARE EQUILIBRIUM ITERATIONS.

 TIME INCREMENT COMPLETED  1.000E+07,  FRACTION OF STEP COMPLETED  4.450E-02
 STEP TIME COMPLETED       4.450E+08,  TOTAL TIME COMPLETED        4.450E+08


  INCREMENT    47 STARTS. ATTEMPT NUMBER  1, TIME INCREMENT  1.000E+07
 
	UNSYMMETRIC NEW DIRECT SPARSE SOLVER RUNNING ON
 	1 HOST x 1 MPI RANK PER HOST x 1 THREAD PER RANK
        NUMBER OF EQUATIONS:  19344
        NUMBER OF RHS:        1
        NUMBER OF FLOPS:      2.940e+09
        SOLVER ELAPSED TIME:  112ms

               CONVERGENCE CHECKS FOR EQUILIBRIUM ITERATION     1


 AVERAGE FORCE                       15.7       TIME AVG. FORCE        15.7    
 LARGEST SCALED RESIDUAL FORCE      8.527E-14   AT NODE       2182   DOF  2
   INSTANCE: ELASTIC-HOLD-PLATE-1                                                            
  CORRESPONDING RESIDUAL FORCE      8.527E-14
 LARGEST INCREMENT OF DISP.        -2.334E-21   AT NODE         52   DOF  2
   INSTANCE: ELASTIC-HOLD-PLATE-1                                                            
 LARGEST CORRECTION TO DISP.       -4.547E-21   AT NODE         59   DOF  2
   INSTANCE: ELASTIC-HOLD-PLATE-1                                                            
          THE FORCE     EQUILIBRIUM RESPONSE WAS LINEAR IN THIS INCREMENT

 AVERAGE HEAT FLUX                  2.050E-19   TIME AVG. HEAT FLUX   1.000E-02
 LARGEST RESIDUAL HEAT FLUX        -3.239E-27   AT NODE       2239   DOF 11
   INSTANCE: ELASTIC-HOLD-PLATE-1                                                            
 LARGEST INCREMENT OF TEMP.         7.292E-15   AT NODE       3482   DOF 11
   INSTANCE: ELASTIC-HOLD-PLATE-1                                                            
 LARGEST CORRECTION TO TEMP.        1.279E-14   AT NODE       3482   DOF 11
   INSTANCE: ELASTIC-HOLD-PLATE-1                                                            
          THERE IS ZERO HEAT FLUX EVERYWHERE
 

 ***WARNING: THERE IS ZERO HEAT FLUX EVERYWHERE IN THE MODEL BASED ON THE 
             DEFAULT CRITERION. PLEASE CHECK THE VALUE OF THE AVERAGE HEAT FLUX 
             DURING THE CURRENT ITERATION TO VERIFY THAT THE HEAT FLUX IS SMALL 
             ENOUGH TO BE TREATED AS ZERO. IF NOT, PLEASE USE THE SOLUTION 
             CONTROLS TO RESET THE CRITERION FOR ZERO HEAT FLUX.

 MAXIMUM NON-PRESCRIBED INCREMENT IN TEMPERATURE IS   7.292E-15

 ITERATION SUMMARY FOR THE INCREMENT:   1 TOTAL ITERATIONS, OF WHICH
   0 ARE SEVERE DISCONTINUITY ITERATIONS AND  1 ARE EQUILIBRIUM ITERATIONS.

 TIME INCREMENT COMPLETED  1.000E+07,  FRACTION OF STEP COMPLETED  4.550E-02
 STEP TIME COMPLETED       4.550E+08,  TOTAL TIME COMPLETED        4.550E+08


  INCREMENT    48 STARTS. ATTEMPT NUMBER  1, TIME INCREMENT  1.000E+07
 
	UNSYMMETRIC NEW DIRECT SPARSE SOLVER RUNNING ON
 	1 HOST x 1 MPI RANK PER HOST x 1 THREAD PER RANK
        NUMBER OF EQUATIONS:  19344
        NUMBER OF RHS:        1
        NUMBER OF FLOPS:      2.940e+09
        SOLVER ELAPSED TIME:  109ms

               CONVERGENCE CHECKS FOR EQUILIBRIUM ITERATION     1


 AVERAGE FORCE                       15.7       TIME AVG. FORCE        15.7    
 LARGEST SCALED RESIDUAL FORCE      8.527E-14   AT NODE       1028   DOF  2
   INSTANCE: ELASTIC-HOLD-PLATE-1                                                            
  CORRESPONDING RESIDUAL FORCE      8.527E-14
 LARGEST INCREMENT OF DISP.         1.569E-21   AT NODE        832   DOF  2
   INSTANCE: ELASTIC-HOLD-PLATE-1                                                            
 LARGEST CORRECTION TO DISP.        2.638E-21   AT NODE         51   DOF  2
   INSTANCE: ELASTIC-HOLD-PLATE-1                                                            
          THE FORCE     EQUILIBRIUM RESPONSE WAS LINEAR IN THIS INCREMENT

 AVERAGE HEAT FLUX                  2.050E-19   TIME AVG. HEAT FLUX   1.000E-02
 LARGEST RESIDUAL HEAT FLUX         3.318E-27   AT NODE       1775   DOF 11
   INSTANCE: ELASTIC-HOLD-PLATE-1                                                            
 LARGEST INCREMENT OF TEMP.        -6.879E-15   AT NODE       1393   DOF 11
   INSTANCE: ELASTIC-HOLD-PLATE-1                                                            
 LARGEST CORRECTION TO TEMP.        1.164E-14   AT NODE       2088   DOF 11
   INSTANCE: ELASTIC-HOLD-PLATE-1                                                            
          THERE IS ZERO HEAT FLUX EVERYWHERE
 

 ***WARNING: THERE IS ZERO HEAT FLUX EVERYWHERE IN THE MODEL BASED ON THE 
             DEFAULT CRITERION. PLEASE CHECK THE VALUE OF THE AVERAGE HEAT FLUX 
             DURING THE CURRENT ITERATION TO VERIFY THAT THE HEAT FLUX IS SMALL 
             ENOUGH TO BE TREATED AS ZERO. IF NOT, PLEASE USE THE SOLUTION 
             CONTROLS TO RESET THE CRITERION FOR ZERO HEAT FLUX.

 MAXIMUM NON-PRESCRIBED INCREMENT IN TEMPERATURE IS  -6.879E-15

 ITERATION SUMMARY FOR THE INCREMENT:   1 TOTAL ITERATIONS, OF WHICH
   0 ARE SEVERE DISCONTINUITY ITERATIONS AND  1 ARE EQUILIBRIUM ITERATIONS.

 TIME INCREMENT COMPLETED  1.000E+07,  FRACTION OF STEP COMPLETED  4.650E-02
 STEP TIME COMPLETED       4.650E+08,  TOTAL TIME COMPLETED        4.650E+08


  INCREMENT    49 STARTS. ATTEMPT NUMBER  1, TIME INCREMENT  1.000E+07
