 Abaqus/Standard 2023.HF4                  DATE 05-Sep-2024 TIME 16:13:32
 SUMMARY OF JOB INFORMATION:
 STEP  INC ATT SEVERE EQUIL TOTAL  TOTAL      STEP       INC OF       DOF    IF
               DISCON ITERS ITERS  TIME/    TIME/LPF    TIME/LPF    MONITOR RIKS
               ITERS               FREQ
   1     1   1     0     1     1  15.0       15.0       15.00     
   1     2   1     0     1     1  30.0       30.0       15.00     
   1     3   1     0     1     1  45.0       45.0       15.00     
   1     4   1     0     1     1  60.0       60.0       15.00     
   1     5   1     0     1     1  75.0       75.0       15.00     
   1     6   1     0     1     1  90.0       90.0       15.00     
   1     7   1     0     1     1  105.       105.       15.00     
   1     8   1     0     1     1  120.       120.       15.00     
   1     9   1     0     1     1  135.       135.       15.00     
   1    10   1     0     1     1  150.       150.       15.00     
   1    11   1     0     1     1  165.       165.       15.00     
   1    12   1     0     1     1  180.       180.       15.00     
   1    13   1     0     1     1  195.       195.       15.00     
   1    14   1     0     1     1  210.       210.       15.00     
   1    15   1     0     1     1  225.       225.       15.00     
   1    16   1     0     1     1  240.       240.       15.00     
   1    17   1     0     1     1  255.       255.       15.00     
   1    18   1     0     1     1  270.       270.       15.00     
   1    19   1     0     1     1  285.       285.       15.00     
   1    20   1     0     1     1  300.       300.       15.00     
   1    21   1     0     1     1  315.       315.       15.00     
   1    22   1     0     1     1  330.       330.       15.00     
   1    23   1     0     1     1  345.       345.       15.00     
   1    24   1     0     1     1  360.       360.       15.00     
   1    25   1     0     1     1  375.       375.       15.00     
   1    26   1     0     1     1  390.       390.       15.00     
   1    27   1     0     1     1  405.       405.       15.00     
   1    28   1     0     1     1  420.       420.       15.00     
   1    29   1     0     1     1  435.       435.       15.00     
   1    30   1     0     1     1  450.       450.       15.00     
   1    31   1     0     1     1  465.       465.       15.00     
   1    32   1     0     1     1  480.       480.       15.00     
   1    33   1     0     1     1  495.       495.       15.00     
   1    34   1     0     1     1  510.       510.       15.00     
   1    35   1     0     1     1  525.       525.       15.00     
   1    36   1     0     1     1  540.       540.       15.00     
   1    37   1     0     1     1  555.       555.       15.00     
   1    38   1     0     1     1  570.       570.       15.00     
   1    39   1     0     1     1  585.       585.       15.00     
   1    40   1     0     1     1  600.       600.       15.00     
   1    41   1     0     1     1  615.       615.       15.00     
   1    42   1     0     1     1  630.       630.       15.00     
   1    43   1     0     1     1  645.       645.       15.00     
   1    44   1     0     1     1  660.       660.       15.00     
   1    45   1     0     1     1  675.       675.       15.00     
   1    46   1     0     1     1  690.       690.       15.00     
   1    47   1     0     1     1  705.       705.       15.00     
   1    48   1     0     1     1  720.       720.       15.00     
   1    49   1     0     1     1  735.       735.       15.00     
   1    50   1     0     1     1  750.       750.       15.00     
   1    51   1     0     1     1  765.       765.       15.00     
   1    52   1     0     1     1  780.       780.       15.00     
   1    53   1     0     1     1  795.       795.       15.00     
   1    54   1     0     1     1  810.       810.       15.00     
   1    55   1     0     1     1  825.       825.       15.00     
   1    56   1     0     1     1  840.       840.       15.00     
   1    57   1     0     1     1  855.       855.       15.00     
   1    58   1     0     1     1  870.       870.       15.00     
   1    59   1     0     1     1  885.       885.       15.00     
   1    60   1     0     1     1  900.       900.       15.00     
   1    61   1     0     1     1  915.       915.       15.00     
   1    62   1     0     1     1  930.       930.       15.00     
   1    63   1     0     1     1  945.       945.       15.00     
   1    64   1     0     1     1  960.       960.       15.00     
   1    65   1     0     1     1  975.       975.       15.00     
   1    66   1     0     1     1  990.       990.       15.00     
   1    67   1     0     1     1  1.00e+03   1.00e+03   15.00     
   1    68   1     0     1     1  1.02e+03   1.02e+03   15.00     
   1    69   1     0     1     1  1.04e+03   1.04e+03   15.00     
   1    70   1     0     1     1  1.05e+03   1.05e+03   15.00     
   1    71   1     0     1     1  1.06e+03   1.06e+03   15.00     
   1    72   1     0     1     1  1.08e+03   1.08e+03   15.00     
   1    73   1     0     1     1  1.10e+03   1.10e+03   15.00     
   1    74   1     0     1     1  1.11e+03   1.11e+03   15.00     
   1    75   1     0     1     1  1.12e+03   1.12e+03   15.00     
   1    76   1     0     1     1  1.14e+03   1.14e+03   15.00     
   1    77   1     0     1     1  1.16e+03   1.16e+03   15.00     
   1    78   1     0     1     1  1.17e+03   1.17e+03   15.00     
   1    79   1     0     1     1  1.18e+03   1.18e+03   15.00     
   1    80   1     0     1     1  1.20e+03   1.20e+03   15.00     
   1    81   1     0     1     1  1.22e+03   1.22e+03   15.00     
   1    82   1     0     1     1  1.23e+03   1.23e+03   15.00     
   1    83   1     0     1     1  1.24e+03   1.24e+03   15.00     
   1    84   1     0     1     1  1.26e+03   1.26e+03   15.00     
   1    85   1     0     1     1  1.28e+03   1.28e+03   15.00     
   1    86   1     0     1     1  1.29e+03   1.29e+03   15.00     
   1    87   1     0     1     1  1.30e+03   1.30e+03   15.00     
   1    88   1     0     1     1  1.32e+03   1.32e+03   15.00     
   1    89   1     0     1     1  1.34e+03   1.34e+03   15.00     
   1    90   1     0     1     1  1.35e+03   1.35e+03   15.00     
   1    91   1     0     1     1  1.36e+03   1.36e+03   15.00     
   1    92   1     0     1     1  1.38e+03   1.38e+03   15.00     
   1    93   1     0     1     1  1.40e+03   1.40e+03   15.00     
   1    94   1     0     1     1  1.41e+03   1.41e+03   15.00     
   1    95   1     0     1     1  1.42e+03   1.42e+03   15.00     
   1    96   1     0     1     1  1.44e+03   1.44e+03   15.00     
   1    97   1     0     1     1  1.46e+03   1.46e+03   15.00     
   1    98   1     0     1     1  1.47e+03   1.47e+03   15.00     
   1    99   1     0     1     1  1.48e+03   1.48e+03   15.00     
   1   100   1     0     1     1  1.50e+03   1.50e+03   15.00     
   1   101   1     0     1     1  1.52e+03   1.52e+03   15.00     
   1   102   1     0     1     1  1.53e+03   1.53e+03   15.00     
   1   103   1     0     1     1  1.54e+03   1.54e+03   15.00     
   1   104   1     0     1     1  1.56e+03   1.56e+03   15.00     
   1   105   1     0     1     1  1.58e+03   1.58e+03   15.00     
   1   106   1     0     1     1  1.59e+03   1.59e+03   15.00     
   1   107   1     0     1     1  1.60e+03   1.60e+03   15.00     
   1   108   1     0     1     1  1.62e+03   1.62e+03   15.00     
   1   109   1     0     1     1  1.64e+03   1.64e+03   15.00     
   1   110   1     0     1     1  1.65e+03   1.65e+03   15.00     
   1   111   1     0     1     1  1.66e+03   1.66e+03   15.00     
   1   112   1     0     1     1  1.68e+03   1.68e+03   15.00     
   1   113   1     0     1     1  1.70e+03   1.70e+03   15.00     
   1   114   1     0     1     1  1.71e+03   1.71e+03   15.00     
   1   115   1     0     1     1  1.72e+03   1.72e+03   15.00     
   1   116   1     0     1     1  1.74e+03   1.74e+03   15.00     
   1   117   1     0     1     1  1.76e+03   1.76e+03   15.00     
   1   118   1     0     1     1  1.77e+03   1.77e+03   15.00     
   1   119   1     0     1     1  1.78e+03   1.78e+03   15.00     
   1   120   1     0     1     1  1.80e+03   1.80e+03   15.00     
   1   121   1     0     1     1  1.82e+03   1.82e+03   15.00     
   1   122   1     0     1     1  1.83e+03   1.83e+03   15.00     
   1   123   1     0     1     1  1.84e+03   1.84e+03   15.00     
   1   124   1     0     1     1  1.86e+03   1.86e+03   15.00     
   1   125   1     0     1     1  1.88e+03   1.88e+03   15.00     
   1   126   1     0     1     1  1.89e+03   1.89e+03   15.00     
   1   127   1     0     1     1  1.90e+03   1.90e+03   15.00     
   1   128   1     0     1     1  1.92e+03   1.92e+03   15.00     
   1   129   1     0     1     1  1.94e+03   1.94e+03   15.00     
   1   130   1     0     1     1  1.95e+03   1.95e+03   15.00     
   1   131   1     0     1     1  1.96e+03   1.96e+03   15.00     
   1   132   1     0     1     1  1.98e+03   1.98e+03   15.00     
   1   133   1     0     1     1  2.00e+03   2.00e+03   15.00     
   1   134   1     0     1     1  2.01e+03   2.01e+03   15.00     
   1   135   1     0     1     1  2.02e+03   2.02e+03   15.00     
   1   136   1     0     1     1  2.04e+03   2.04e+03   15.00     
   1   137   1     0     1     1  2.06e+03   2.06e+03   15.00     
   1   138   1     0     1     1  2.07e+03   2.07e+03   15.00     
   1   139   1     0     1     1  2.08e+03   2.08e+03   15.00     
   1   140   1     0     1     1  2.10e+03   2.10e+03   15.00     
   1   141   1     0     1     1  2.12e+03   2.12e+03   15.00     
   1   142   1     0     1     1  2.13e+03   2.13e+03   15.00     
   1   143   1     0     1     1  2.14e+03   2.14e+03   15.00     
   1   144   1     0     1     1  2.16e+03   2.16e+03   15.00     
   1   145   1     0     1     1  2.18e+03   2.18e+03   15.00     
   1   146   1     0     1     1  2.19e+03   2.19e+03   15.00     
   1   147   1     0     1     1  2.20e+03   2.20e+03   15.00     
   1   148   1     0     1     1  2.22e+03   2.22e+03   15.00     
   1   149   1     0     1     1  2.24e+03   2.24e+03   15.00     
   1   150   1     0     1     1  2.25e+03   2.25e+03   15.00     
   1   151   1     0     1     1  2.26e+03   2.26e+03   15.00     
   1   152   1     0     1     1  2.28e+03   2.28e+03   15.00     
   1   153   1     0     1     1  2.30e+03   2.30e+03   15.00     
   1   154   1     0     1     1  2.31e+03   2.31e+03   15.00     
   1   155   1     0     1     1  2.32e+03   2.32e+03   15.00     
   1   156   1     0     1     1  2.34e+03   2.34e+03   15.00     
   1   157   1     0     1     1  2.36e+03   2.36e+03   15.00     
   1   158   1     0     1     1  2.37e+03   2.37e+03   15.00     
   1   159   1     0     1     1  2.38e+03   2.38e+03   15.00     
   1   160   1     0     1     1  2.40e+03   2.40e+03   15.00     
   1   161   1     0     1     1  2.42e+03   2.42e+03   15.00     
   1   162   1     0     1     1  2.43e+03   2.43e+03   15.00     
   1   163   1     0     1     1  2.44e+03   2.44e+03   15.00     
   1   164   1     0     1     1  2.46e+03   2.46e+03   15.00     
   1   165   1     0     1     1  2.48e+03   2.48e+03   15.00     
   1   166   1     0     1     1  2.49e+03   2.49e+03   15.00     
   1   167   1     0     1     1  2.50e+03   2.50e+03   15.00     
   1   168   1     0     1     1  2.52e+03   2.52e+03   15.00     
   1   169   1     0     1     1  2.54e+03   2.54e+03   15.00     
   1   170   1     0     1     1  2.55e+03   2.55e+03   15.00     
   1   171   1     0     1     1  2.56e+03   2.56e+03   15.00     
   1   172   1     0     1     1  2.58e+03   2.58e+03   15.00     
   1   173   1     0     1     1  2.60e+03   2.60e+03   15.00     
   1   174   1     0     1     1  2.61e+03   2.61e+03   15.00     
   1   175   1     0     1     1  2.62e+03   2.62e+03   15.00     
   1   176   1     0     1     1  2.64e+03   2.64e+03   15.00     
   1   177   1     0     1     1  2.66e+03   2.66e+03   15.00     
   1   178   1     0     1     1  2.67e+03   2.67e+03   15.00     
   1   179   1     0     1     1  2.68e+03   2.68e+03   15.00     
   1   180   1     0     1     1  2.70e+03   2.70e+03   15.00     
   1   181   1     0     1     1  2.72e+03   2.72e+03   15.00     
   1   182   1     0     1     1  2.73e+03   2.73e+03   15.00     
   1   183   1     0     1     1  2.74e+03   2.74e+03   15.00     
   1   184   1     0     1     1  2.76e+03   2.76e+03   15.00     
   1   185   1     0     1     1  2.78e+03   2.78e+03   15.00     
   1   186   1     0     1     1  2.79e+03   2.79e+03   15.00     
   1   187   1     0     1     1  2.80e+03   2.80e+03   15.00     
   1   188   1     0     1     1  2.82e+03   2.82e+03   15.00     
   1   189   1     0     1     1  2.84e+03   2.84e+03   15.00     
   1   190   1     0     1     1  2.85e+03   2.85e+03   15.00     
   1   191   1     0     1     1  2.86e+03   2.86e+03   15.00     
   1   192   1     0     1     1  2.88e+03   2.88e+03   15.00     
   1   193   1     0     1     1  2.90e+03   2.90e+03   15.00     
   1   194   1     0     1     1  2.91e+03   2.91e+03   15.00     
   1   195   1     0     1     1  2.92e+03   2.92e+03   15.00     
   1   196   1     0     1     1  2.94e+03   2.94e+03   15.00     
   1   197   1     0     1     1  2.96e+03   2.96e+03   15.00     
   1   198   1     0     1     1  2.97e+03   2.97e+03   15.00     
   1   199   1     0     1     1  2.98e+03   2.98e+03   15.00     
   1   200   1     0     1     1  3.00e+03   3.00e+03   15.00     
   1   201   1     0     1     1  3.02e+03   3.02e+03   15.00     
   1   202   1     0     1     1  3.03e+03   3.03e+03   15.00     
   1   203   1     0     1     1  3.04e+03   3.04e+03   15.00     
   1   204   1     0     1     1  3.06e+03   3.06e+03   15.00     
   1   205   1     0     1     1  3.08e+03   3.08e+03   15.00     
   1   206   1     0     1     1  3.09e+03   3.09e+03   15.00     
   1   207   1     0     1     1  3.10e+03   3.10e+03   15.00     
   1   208   1     0     1     1  3.12e+03   3.12e+03   15.00     
   1   209   1     0     1     1  3.14e+03   3.14e+03   15.00     
   1   210   1     0     1     1  3.15e+03   3.15e+03   15.00     
   1   211   1     0     1     1  3.16e+03   3.16e+03   15.00     
   1   212   1     0     1     1  3.18e+03   3.18e+03   15.00     
   1   213   1     0     1     1  3.20e+03   3.20e+03   15.00     
   1   214   1     0     1     1  3.21e+03   3.21e+03   15.00     
   1   215   1     0     1     1  3.22e+03   3.22e+03   15.00     
   1   216   1     0     1     1  3.24e+03   3.24e+03   15.00     
   1   217   1     0     1     1  3.26e+03   3.26e+03   15.00     
   1   218   1     0     1     1  3.27e+03   3.27e+03   15.00     
   1   219   1     0     1     1  3.28e+03   3.28e+03   15.00     
   1   220   1     0     1     1  3.30e+03   3.30e+03   15.00     
   1   221   1     0     1     1  3.32e+03   3.32e+03   15.00     
   1   222   1     0     1     1  3.33e+03   3.33e+03   15.00     
   1   223   1     0     1     1  3.34e+03   3.34e+03   15.00     
   1   224   1     0     1     1  3.36e+03   3.36e+03   15.00     
   1   225   1     0     1     1  3.38e+03   3.38e+03   15.00     
   1   226   1     0     1     1  3.39e+03   3.39e+03   15.00     
   1   227   1     0     1     1  3.40e+03   3.40e+03   15.00     
   1   228   1     0     1     1  3.42e+03   3.42e+03   15.00     
   1   229   1     0     1     1  3.44e+03   3.44e+03   15.00     
   1   230   1     0     1     1  3.45e+03   3.45e+03   15.00     
   1   231   1     0     1     1  3.46e+03   3.46e+03   15.00     
   1   232   1     0     1     1  3.48e+03   3.48e+03   15.00     
   1   233   1     0     1     1  3.50e+03   3.50e+03   15.00     
   1   234   1     0     1     1  3.51e+03   3.51e+03   15.00     
   1   235   1     0     1     1  3.52e+03   3.52e+03   15.00     
   1   236   1     0     1     1  3.54e+03   3.54e+03   15.00     
   1   237   1     0     1     1  3.56e+03   3.56e+03   15.00     
   1   238   1     0     1     1  3.57e+03   3.57e+03   15.00     
   1   239   1     0     1     1  3.58e+03   3.58e+03   15.00     
   1   240   1     0     1     1  3.60e+03   3.60e+03   15.00     
   1   241   1     0     1     1  3.62e+03   3.62e+03   15.00     
   1   242   1     0     1     1  3.63e+03   3.63e+03   15.00     
   1   243   1     0     1     1  3.64e+03   3.64e+03   15.00     
   1   244   1     0     1     1  3.66e+03   3.66e+03   15.00     
   1   245   1     0     1     1  3.68e+03   3.68e+03   15.00     
   1   246   1     0     1     1  3.69e+03   3.69e+03   15.00     
   1   247   1     0     1     1  3.70e+03   3.70e+03   15.00     
   1   248   1     0     1     1  3.72e+03   3.72e+03   15.00     
   1   249   1     0     1     1  3.74e+03   3.74e+03   15.00     
   1   250   1     0     1     1  3.75e+03   3.75e+03   15.00     
   1   251   1     0     1     1  3.76e+03   3.76e+03   15.00     
   1   252   1     0     1     1  3.78e+03   3.78e+03   15.00     
   1   253   1     0     1     1  3.80e+03   3.80e+03   15.00     
   1   254   1     0     1     1  3.81e+03   3.81e+03   15.00     
   1   255   1     0     1     1  3.82e+03   3.82e+03   15.00     
   1   256   1     0     1     1  3.84e+03   3.84e+03   15.00     
   1   257   1     0     1     1  3.86e+03   3.86e+03   15.00     
   1   258   1     0     1     1  3.87e+03   3.87e+03   15.00     
   1   259   1     0     1     1  3.88e+03   3.88e+03   15.00     
   1   260   1     0     1     1  3.90e+03   3.90e+03   15.00     
   1   261   1     0     1     1  3.92e+03   3.92e+03   15.00     
   1   262   1     0     1     1  3.93e+03   3.93e+03   15.00     
   1   263   1     0     1     1  3.94e+03   3.94e+03   15.00     
   1   264   1     0     1     1  3.96e+03   3.96e+03   15.00     
   1   265   1     0     1     1  3.98e+03   3.98e+03   15.00     
   1   266   1     0     1     1  3.99e+03   3.99e+03   15.00     
   1   267   1     0     1     1  4.00e+03   4.00e+03   15.00     
   1   268   1     0     1     1  4.02e+03   4.02e+03   15.00     
   1   269   1     0     1     1  4.04e+03   4.04e+03   15.00     
   1   270   1     0     1     1  4.05e+03   4.05e+03   15.00     
   1   271   1     0     1     1  4.06e+03   4.06e+03   15.00     
   1   272   1     0     1     1  4.08e+03   4.08e+03   15.00     
   1   273   1     0     1     1  4.10e+03   4.10e+03   15.00     
   1   274   1     0     1     1  4.11e+03   4.11e+03   15.00     
   1   275   1     0     1     1  4.12e+03   4.12e+03   15.00     
   1   276   1     0     1     1  4.14e+03   4.14e+03   15.00     
   1   277   1     0     1     1  4.16e+03   4.16e+03   15.00     
   1   278   1     0     1     1  4.17e+03   4.17e+03   15.00     
   1   279   1     0     1     1  4.18e+03   4.18e+03   15.00     
   1   280   1     0     1     1  4.20e+03   4.20e+03   15.00     
   1   281   1     0     1     1  4.22e+03   4.22e+03   15.00     
   1   282   1     0     1     1  4.23e+03   4.23e+03   15.00     
   1   283   1     0     1     1  4.24e+03   4.24e+03   15.00     
   1   284   1     0     1     1  4.26e+03   4.26e+03   15.00     
   1   285   1     0     1     1  4.28e+03   4.28e+03   15.00     
   1   286   1     0     1     1  4.29e+03   4.29e+03   15.00     
   1   287   1     0     1     1  4.30e+03   4.30e+03   15.00     
   1   288   1     0     1     1  4.32e+03   4.32e+03   15.00     
   1   289   1     0     1     1  4.34e+03   4.34e+03   15.00     
   1   290   1     0     1     1  4.35e+03   4.35e+03   15.00     
   1   291   1     0     1     1  4.36e+03   4.36e+03   15.00     
   1   292   1     0     1     1  4.38e+03   4.38e+03   15.00     
   1   293   1     0     1     1  4.40e+03   4.40e+03   15.00     
   1   294   1     0     1     1  4.41e+03   4.41e+03   15.00     
   1   295   1     0     1     1  4.42e+03   4.42e+03   15.00     
   1   296   1     0     1     1  4.44e+03   4.44e+03   15.00     
   1   297   1     0     1     1  4.46e+03   4.46e+03   15.00     
   1   298   1     0     1     1  4.47e+03   4.47e+03   15.00     
   1   299   1     0     1     1  4.48e+03   4.48e+03   15.00     
   1   300   1     0     1     1  4.50e+03   4.50e+03   15.00     
   1   301   1     0     1     1  4.52e+03   4.52e+03   15.00     
   1   302   1     0     1     1  4.53e+03   4.53e+03   15.00     
   1   303   1     0     1     1  4.54e+03   4.54e+03   15.00     
   1   304   1     0     1     1  4.56e+03   4.56e+03   15.00     
   1   305   1     0     1     1  4.58e+03   4.58e+03   15.00     
   1   306   1     0     1     1  4.59e+03   4.59e+03   15.00     
   1   307   1     0     1     1  4.60e+03   4.60e+03   15.00     
   1   308   1     0     1     1  4.62e+03   4.62e+03   15.00     
   1   309   1     0     1     1  4.64e+03   4.64e+03   15.00     
   1   310   1     0     1     1  4.65e+03   4.65e+03   15.00     
   1   311   1     0     1     1  4.66e+03   4.66e+03   15.00     
   1   312   1     0     1     1  4.68e+03   4.68e+03   15.00     
   1   313   1     0     1     1  4.70e+03   4.70e+03   15.00     
   1   314   1     0     1     1  4.71e+03   4.71e+03   15.00     
   1   315   1     0     1     1  4.72e+03   4.72e+03   15.00     
   1   316   1     0     1     1  4.74e+03   4.74e+03   15.00     
   1   317   1     0     1     1  4.76e+03   4.76e+03   15.00     
   1   318   1     0     1     1  4.77e+03   4.77e+03   15.00     
   1   319   1     0     1     1  4.78e+03   4.78e+03   15.00     
   1   320   1     0     1     1  4.80e+03   4.80e+03   15.00     
   1   321   1     0     1     1  4.82e+03   4.82e+03   15.00     
   1   322   1     0     1     1  4.83e+03   4.83e+03   15.00     
   1   323   1     0     1     1  4.84e+03   4.84e+03   15.00     
   1   324   1     0     1     1  4.86e+03   4.86e+03   15.00     
   1   325   1     0     1     1  4.88e+03   4.88e+03   15.00     
   1   326   1     0     1     1  4.89e+03   4.89e+03   15.00     
   1   327   1     0     1     1  4.90e+03   4.90e+03   15.00     
   1   328   1     0     1     1  4.92e+03   4.92e+03   15.00     
   1   329   1     0     1     1  4.94e+03   4.94e+03   15.00     
   1   330   1     0     1     1  4.95e+03   4.95e+03   15.00     
   1   331   1     0     1     1  4.96e+03   4.96e+03   15.00     
   1   332   1     0     1     1  4.98e+03   4.98e+03   15.00     
   1   333   1     0     1     1  5.00e+03   5.00e+03   15.00     
   1   334   1     0     1     1  5.01e+03   5.01e+03   15.00     
   1   335   1     0     1     1  5.02e+03   5.02e+03   15.00     
   1   336   1     0     1     1  5.04e+03   5.04e+03   15.00     
   1   337   1     0     1     1  5.06e+03   5.06e+03   15.00     
   1   338   1     0     1     1  5.07e+03   5.07e+03   15.00     
   1   339   1     0     1     1  5.08e+03   5.08e+03   15.00     
   1   340   1     0     1     1  5.10e+03   5.10e+03   15.00     
   1   341   1     0     1     1  5.12e+03   5.12e+03   15.00     
   1   342   1     0     1     1  5.13e+03   5.13e+03   15.00     
   1   343   1     0     1     1  5.14e+03   5.14e+03   15.00     
   1   344   1     0     1     1  5.16e+03   5.16e+03   15.00     
   1   345   1     0     1     1  5.18e+03   5.18e+03   15.00     
   1   346   1     0     1     1  5.19e+03   5.19e+03   15.00     
   1   347   1     0     1     1  5.20e+03   5.20e+03   15.00     
   1   348   1     0     1     1  5.22e+03   5.22e+03   15.00     
   1   349   1     0     1     1  5.24e+03   5.24e+03   15.00     
   1   350   1     0     1     1  5.25e+03   5.25e+03   15.00     
   1   351   1     0     1     1  5.26e+03   5.26e+03   15.00     
   1   352   1     0     1     1  5.28e+03   5.28e+03   15.00     
   1   353   1     0     1     1  5.30e+03   5.30e+03   15.00     
   1   354   1     0     1     1  5.31e+03   5.31e+03   15.00     
   1   355   1     0     1     1  5.32e+03   5.32e+03   15.00     
   1   356   1     0     1     1  5.34e+03   5.34e+03   15.00     
   1   357   1     0     1     1  5.36e+03   5.36e+03   15.00     
   1   358   1     0     1     1  5.37e+03   5.37e+03   15.00     
   1   359   1     0     1     1  5.38e+03   5.38e+03   15.00     
   1   360   1     0     1     1  5.40e+03   5.40e+03   15.00     
   1   361   1     0     1     1  5.42e+03   5.42e+03   15.00     
   1   362   1     0     1     1  5.43e+03   5.43e+03   15.00     
   1   363   1     0     1     1  5.44e+03   5.44e+03   15.00     
   1   364   1     0     1     1  5.46e+03   5.46e+03   15.00     
   1   365   1     0     1     1  5.48e+03   5.48e+03   15.00     
   1   366   1     0     1     1  5.49e+03   5.49e+03   15.00     
   1   367   1     0     1     1  5.50e+03   5.50e+03   15.00     
   1   368   1     0     1     1  5.52e+03   5.52e+03   15.00     
   1   369   1     0     1     1  5.54e+03   5.54e+03   15.00     
   1   370   1     0     1     1  5.55e+03   5.55e+03   15.00     
   1   371   1     0     1     1  5.56e+03   5.56e+03   15.00     
   1   372   1     0     1     1  5.58e+03   5.58e+03   15.00     
   1   373   1     0     1     1  5.60e+03   5.60e+03   15.00     
   1   374   1     0     1     1  5.61e+03   5.61e+03   15.00     
   1   375   1     0     1     1  5.62e+03   5.62e+03   15.00     
   1   376   1     0     1     1  5.64e+03   5.64e+03   15.00     
   1   377   1     0     1     1  5.66e+03   5.66e+03   15.00     
   1   378   1     0     1     1  5.67e+03   5.67e+03   15.00     
   1   379   1     0     1     1  5.68e+03   5.68e+03   15.00     
   1   380   1     0     1     1  5.70e+03   5.70e+03   15.00     
   1   381   1     0     1     1  5.72e+03   5.72e+03   15.00     
   1   382   1     0     1     1  5.73e+03   5.73e+03   15.00     
   1   383   1     0     1     1  5.74e+03   5.74e+03   15.00     
   1   384   1     0     1     1  5.76e+03   5.76e+03   15.00     
   1   385   1     0     1     1  5.78e+03   5.78e+03   15.00     
   1   386   1     0     1     1  5.79e+03   5.79e+03   15.00     
   1   387   1     0     1     1  5.80e+03   5.80e+03   15.00     
   1   388   1     0     1     1  5.82e+03   5.82e+03   15.00     
   1   389   1     0     1     1  5.84e+03   5.84e+03   15.00     
   1   390   1     0     1     1  5.85e+03   5.85e+03   15.00     
   1   391   1     0     1     1  5.86e+03   5.86e+03   15.00     
   1   392   1     0     1     1  5.88e+03   5.88e+03   15.00     
   1   393   1     0     1     1  5.90e+03   5.90e+03   15.00     
   1   394   1     0     1     1  5.91e+03   5.91e+03   15.00     
   1   395   1     0     1     1  5.92e+03   5.92e+03   15.00     
   1   396   1     0     1     1  5.94e+03   5.94e+03   15.00     
   1   397   1     0     1     1  5.96e+03   5.96e+03   15.00     
   1   398   1     0     1     1  5.97e+03   5.97e+03   15.00     
   1   399   1     0     1     1  5.98e+03   5.98e+03   15.00     
   1   400   1     0     1     1  6.00e+03   6.00e+03   15.00     
   1   401   1     0     1     1  6.02e+03   6.02e+03   15.00     
   1   402   1     0     1     1  6.03e+03   6.03e+03   15.00     
   1   403   1     0     1     1  6.04e+03   6.04e+03   15.00     
   1   404   1     0     1     1  6.06e+03   6.06e+03   15.00     
   1   405   1     0     1     1  6.08e+03   6.08e+03   15.00     
   1   406   1     0     1     1  6.09e+03   6.09e+03   15.00     
   1   407   1     0     1     1  6.10e+03   6.10e+03   15.00     
   1   408   1     0     1     1  6.12e+03   6.12e+03   15.00     
   1   409   1     0     1     1  6.14e+03   6.14e+03   15.00     
   1   410   1     0     1     1  6.15e+03   6.15e+03   15.00     
   1   411   1     0     1     1  6.16e+03   6.16e+03   15.00     
   1   412   1     0     1     1  6.18e+03   6.18e+03   15.00     
   1   413   1     0     1     1  6.20e+03   6.20e+03   15.00     
   1   414   1     0     1     1  6.21e+03   6.21e+03   15.00     
   1   415   1     0     1     1  6.22e+03   6.22e+03   15.00     
   1   416   1     0     1     1  6.24e+03   6.24e+03   15.00     
   1   417   1     0     1     1  6.26e+03   6.26e+03   15.00     
   1   418   1     0     1     1  6.27e+03   6.27e+03   15.00     
   1   419   1     0     1     1  6.28e+03   6.28e+03   15.00     
   1   420   1     0     1     1  6.30e+03   6.30e+03   15.00     
   1   421   1     0     1     1  6.32e+03   6.32e+03   15.00     
   1   422   1     0     1     1  6.33e+03   6.33e+03   15.00     
   1   423   1     0     1     1  6.34e+03   6.34e+03   15.00     
   1   424   1     0     1     1  6.36e+03   6.36e+03   15.00     
   1   425   1     0     1     1  6.38e+03   6.38e+03   15.00     
   1   426   1     0     1     1  6.39e+03   6.39e+03   15.00     
   1   427   1     0     1     1  6.40e+03   6.40e+03   15.00     
   1   428   1     0     1     1  6.42e+03   6.42e+03   15.00     
   1   429   1     0     1     1  6.44e+03   6.44e+03   15.00     
   1   430   1     0     1     1  6.45e+03   6.45e+03   15.00     
   1   431   1     0     1     1  6.46e+03   6.46e+03   15.00     
   1   432   1     0     1     1  6.48e+03   6.48e+03   15.00     
   1   433   1     0     1     1  6.50e+03   6.50e+03   15.00     
   1   434   1     0     1     1  6.51e+03   6.51e+03   15.00     
   1   435   1     0     1     1  6.52e+03   6.52e+03   15.00     
   1   436   1     0     1     1  6.54e+03   6.54e+03   15.00     
   1   437   1     0     1     1  6.56e+03   6.56e+03   15.00     
   1   438   1     0     1     1  6.57e+03   6.57e+03   15.00     
   1   439   1     0     1     1  6.58e+03   6.58e+03   15.00     
   1   440   1     0     1     1  6.60e+03   6.60e+03   15.00     
   1   441   1     0     1     1  6.62e+03   6.62e+03   15.00     
   1   442   1     0     1     1  6.63e+03   6.63e+03   15.00     
   1   443   1     0     1     1  6.64e+03   6.64e+03   15.00     
   1   444   1     0     1     1  6.66e+03   6.66e+03   15.00     
   1   445   1     0     1     1  6.68e+03   6.68e+03   15.00     
   1   446   1     0     1     1  6.69e+03   6.69e+03   15.00     
   1   447   1     0     1     1  6.70e+03   6.70e+03   15.00     
   1   448   1     0     1     1  6.72e+03   6.72e+03   15.00     
   1   449   1     0     1     1  6.74e+03   6.74e+03   15.00     
   1   450   1     0     1     1  6.75e+03   6.75e+03   15.00     
   1   451   1     0     1     1  6.76e+03   6.76e+03   15.00     
   1   452   1     0     1     1  6.78e+03   6.78e+03   15.00     
   1   453   1     0     1     1  6.80e+03   6.80e+03   15.00     
   1   454   1     0     1     1  6.81e+03   6.81e+03   15.00     
   1   455   1     0     1     1  6.82e+03   6.82e+03   15.00     
   1   456   1     0     1     1  6.84e+03   6.84e+03   15.00     
   1   457   1     0     1     1  6.86e+03   6.86e+03   15.00     
   1   458   1     0     1     1  6.87e+03   6.87e+03   15.00     
   1   459   1     0     1     1  6.88e+03   6.88e+03   15.00     
   1   460   1     0     1     1  6.90e+03   6.90e+03   15.00     
   1   461   1     0     1     1  6.92e+03   6.92e+03   15.00     
   1   462   1     0     1     1  6.93e+03   6.93e+03   15.00     
   1   463   1     0     1     1  6.94e+03   6.94e+03   15.00     
   1   464   1     0     1     1  6.96e+03   6.96e+03   15.00     
   1   465   1     0     1     1  6.98e+03   6.98e+03   15.00     
   1   466   1     0     1     1  6.99e+03   6.99e+03   15.00     
   1   467   1     0     1     1  7.00e+03   7.00e+03   15.00     
   1   468   1     0     1     1  7.02e+03   7.02e+03   15.00     
   1   469   1     0     1     1  7.04e+03   7.04e+03   15.00     
   1   470   1     0     1     1  7.05e+03   7.05e+03   15.00     
   1   471   1     0     1     1  7.06e+03   7.06e+03   15.00     
   1   472   1     0     1     1  7.08e+03   7.08e+03   15.00     
   1   473   1     0     1     1  7.10e+03   7.10e+03   15.00     
   1   474   1     0     1     1  7.11e+03   7.11e+03   15.00     
   1   475   1     0     1     1  7.12e+03   7.12e+03   15.00     
   1   476   1     0     1     1  7.14e+03   7.14e+03   15.00     
   1   477   1     0     1     1  7.16e+03   7.16e+03   15.00     
   1   478   1     0     1     1  7.17e+03   7.17e+03   15.00     
   1   479   1     0     1     1  7.18e+03   7.18e+03   15.00     
   1   480   1     0     1     1  7.20e+03   7.20e+03   15.00     
                          
 THE ANALYSIS HAS COMPLETED SUCCESSFULLY
