 Abaqus/Standard 2023.HF4                  DATE 28-Aug-2024 TIME 18:52:38
 SUMMARY OF JOB INFORMATION:
 STEP  INC ATT SEVERE EQUIL TOTAL  TOTAL      STEP       INC OF       DOF    IF
               DISCON ITERS ITERS  TIME/    TIME/LPF    TIME/LPF    MONITOR RIKS
               ITERS               FREQ
   1     1   1     0     1     1  36.0       36.0       36.00     
   1     2   1     0     1     1  72.0       72.0       36.00     
   1     3   1     0     1     1  108.       108.       36.00     
   1     4   1     0     1     1  144.       144.       36.00     
   1     5   1     0     1     1  180.       180.       36.00     
   1     6   1     0     1     1  216.       216.       36.00     
   1     7   1     0     1     1  252.       252.       36.00     
   1     8   1     0     1     1  288.       288.       36.00     
   1     9   1     0     1     1  324.       324.       36.00     
   1    10   1     0     1     1  360.       360.       36.00     
   1    11   1     0     1     1  396.       396.       36.00     
   1    12   1     0     1     1  432.       432.       36.00     
   1    13   1     0     1     1  468.       468.       36.00     
   1    14   1     0     1     1  504.       504.       36.00     
   1    15   1     0     1     1  540.       540.       36.00     
   1    16   1     0     1     1  576.       576.       36.00     
   1    17   1     0     1     1  612.       612.       36.00     
   1    18   1     0     1     1  648.       648.       36.00     
   1    19   1     0     1     1  684.       684.       36.00     
   1    20   1     0     1     1  720.       720.       36.00     
   1    21   1     0     1     1  756.       756.       36.00     
   1    22   1     0     1     1  792.       792.       36.00     
   1    23   1     0     1     1  828.       828.       36.00     
   1    24   1     0     1     1  864.       864.       36.00     
   1    25   1     0     1     1  900.       900.       36.00     
   1    26   1     0     1     1  936.       936.       36.00     
   1    27   1     0     1     1  972.       972.       36.00     
   1    28   1     0     1     1  1.01e+03   1.01e+03   36.00     
   1    29   1     0     1     1  1.04e+03   1.04e+03   36.00     
   1    30   1     0     1     1  1.08e+03   1.08e+03   36.00     
   1    31   1     0     1     1  1.12e+03   1.12e+03   36.00     
   1    32   1     0     1     1  1.15e+03   1.15e+03   36.00     
   1    33   1     0     1     1  1.19e+03   1.19e+03   36.00     
   1    34   1     0     1     1  1.22e+03   1.22e+03   36.00     
   1    35   1     0     1     1  1.26e+03   1.26e+03   36.00     
   1    36   1     0     1     1  1.30e+03   1.30e+03   36.00     
   1    37   1     0     1     1  1.33e+03   1.33e+03   36.00     
   1    38   1     0     1     1  1.37e+03   1.37e+03   36.00     
   1    39   1     0     1     1  1.40e+03   1.40e+03   36.00     
   1    40   1     0     1     1  1.44e+03   1.44e+03   36.00     
   1    41   1     0     1     1  1.48e+03   1.48e+03   36.00     
   1    42   1     0     1     1  1.51e+03   1.51e+03   36.00     
   1    43   1     0     1     1  1.55e+03   1.55e+03   36.00     
   1    44   1     0     1     1  1.58e+03   1.58e+03   36.00     
   1    45   1     0     1     1  1.62e+03   1.62e+03   36.00     
   1    46   1     0     1     1  1.66e+03   1.66e+03   36.00     
   1    47   1     0     1     1  1.69e+03   1.69e+03   36.00     
   1    48   1     0     1     1  1.73e+03   1.73e+03   36.00     
   1    49   1     0     1     1  1.76e+03   1.76e+03   36.00     
   1    50   1     0     1     1  1.80e+03   1.80e+03   36.00     
   1    51   1     0     1     1  1.84e+03   1.84e+03   36.00     
   1    52   1     0     1     1  1.87e+03   1.87e+03   36.00     
   1    53   1     0     1     1  1.91e+03   1.91e+03   36.00     
   1    54   1     0     1     1  1.94e+03   1.94e+03   36.00     
   1    55   1     0     1     1  1.98e+03   1.98e+03   36.00     
   1    56   1     0     1     1  2.02e+03   2.02e+03   36.00     
   1    57   1     0     1     1  2.05e+03   2.05e+03   36.00     
   1    58   1     0     1     1  2.09e+03   2.09e+03   36.00     
   1    59   1     0     1     1  2.12e+03   2.12e+03   36.00     
   1    60   1     0     1     1  2.16e+03   2.16e+03   36.00     
   1    61   1     0     1     1  2.20e+03   2.20e+03   36.00     
   1    62   1     0     1     1  2.23e+03   2.23e+03   36.00     
   1    63   1     0     1     1  2.27e+03   2.27e+03   36.00     
   1    64   1     0     1     1  2.30e+03   2.30e+03   36.00     
   1    65   1     0     1     1  2.34e+03   2.34e+03   36.00     
   1    66   1     0     1     1  2.38e+03   2.38e+03   36.00     
   1    67   1     0     1     1  2.41e+03   2.41e+03   36.00     
   1    68   1     0     1     1  2.45e+03   2.45e+03   36.00     
   1    69   1     0     1     1  2.48e+03   2.48e+03   36.00     
   1    70   1     0     1     1  2.52e+03   2.52e+03   36.00     
   1    71   1     0     1     1  2.56e+03   2.56e+03   36.00     
   1    72   1     0     1     1  2.59e+03   2.59e+03   36.00     
   1    73   1     0     1     1  2.63e+03   2.63e+03   36.00     
   1    74   1     0     1     1  2.66e+03   2.66e+03   36.00     
   1    75   1     0     1     1  2.70e+03   2.70e+03   36.00     
   1    76   1     0     1     1  2.74e+03   2.74e+03   36.00     
   1    77   1     0     1     1  2.77e+03   2.77e+03   36.00     
   1    78   1     0     1     1  2.81e+03   2.81e+03   36.00     
   1    79   1     0     1     1  2.84e+03   2.84e+03   36.00     
   1    80   1     0     1     1  2.88e+03   2.88e+03   36.00     
   1    81   1     0     1     1  2.92e+03   2.92e+03   36.00     
   1    82   1     0     1     1  2.95e+03   2.95e+03   36.00     
   1    83   1     0     1     1  2.99e+03   2.99e+03   36.00     
   1    84   1     0     1     1  3.02e+03   3.02e+03   36.00     
   1    85   1     0     1     1  3.06e+03   3.06e+03   36.00     
   1    86   1     0     1     1  3.10e+03   3.10e+03   36.00     
   1    87   1     0     1     1  3.13e+03   3.13e+03   36.00     
   1    88   1     0     1     1  3.17e+03   3.17e+03   36.00     
   1    89   1     0     1     1  3.20e+03   3.20e+03   36.00     
   1    90   1     0     1     1  3.24e+03   3.24e+03   36.00     
   1    91   1     0     1     1  3.28e+03   3.28e+03   36.00     
   1    92   1     0     1     1  3.31e+03   3.31e+03   36.00     
   1    93   1     0     1     1  3.35e+03   3.35e+03   36.00     
   1    94   1     0     1     1  3.38e+03   3.38e+03   36.00     
   1    95   1     0     1     1  3.42e+03   3.42e+03   36.00     
   1    96   1     0     1     1  3.46e+03   3.46e+03   36.00     
   1    97   1     0     1     1  3.49e+03   3.49e+03   36.00     
   1    98   1     0     1     1  3.53e+03   3.53e+03   36.00     
   1    99   1     0     1     1  3.56e+03   3.56e+03   36.00     
   1   100   1     0     1     1  3.60e+03   3.60e+03   36.00     
   1   101   1     0     1     1  3.64e+03   3.64e+03   36.00     
   1   102   1     0     1     1  3.67e+03   3.67e+03   36.00     
   1   103   1     0     1     1  3.71e+03   3.71e+03   36.00     
   1   104   1     0     1     1  3.74e+03   3.74e+03   36.00     
   1   105   1     0     1     1  3.78e+03   3.78e+03   36.00     
   1   106   1     0     1     1  3.82e+03   3.82e+03   36.00     
   1   107   1     0     1     1  3.85e+03   3.85e+03   36.00     
   1   108   1     0     1     1  3.89e+03   3.89e+03   36.00     
   1   109   1     0     1     1  3.92e+03   3.92e+03   36.00     
   1   110   1     0     1     1  3.96e+03   3.96e+03   36.00     
   1   111   1     0     1     1  4.00e+03   4.00e+03   36.00     
   1   112   1     0     1     1  4.03e+03   4.03e+03   36.00     
   1   113   1     0     1     1  4.07e+03   4.07e+03   36.00     
   1   114   1     0     1     1  4.10e+03   4.10e+03   36.00     
   1   115   1     0     1     1  4.14e+03   4.14e+03   36.00     
   1   116   1     0     1     1  4.18e+03   4.18e+03   36.00     
   1   117   1     0     1     1  4.21e+03   4.21e+03   36.00     
   1   118   1     0     1     1  4.25e+03   4.25e+03   36.00     
   1   119   1     0     1     1  4.28e+03   4.28e+03   36.00     
   1   120   1     0     1     1  4.32e+03   4.32e+03   36.00     
   1   121   1     0     1     1  4.36e+03   4.36e+03   36.00     
   1   122   1     0     1     1  4.39e+03   4.39e+03   36.00     
   1   123   1     0     1     1  4.43e+03   4.43e+03   36.00     
   1   124   1     0     1     1  4.46e+03   4.46e+03   36.00     
   1   125   1     0     1     1  4.50e+03   4.50e+03   36.00     
   1   126   1     0     1     1  4.54e+03   4.54e+03   36.00     
   1   127   1     0     1     1  4.57e+03   4.57e+03   36.00     
   1   128   1     0     1     1  4.61e+03   4.61e+03   36.00     
   1   129   1     0     1     1  4.64e+03   4.64e+03   36.00     
   1   130   1     0     1     1  4.68e+03   4.68e+03   36.00     
   1   131   1     0     1     1  4.72e+03   4.72e+03   36.00     
   1   132   1     0     1     1  4.75e+03   4.75e+03   36.00     
   1   133   1     0     1     1  4.79e+03   4.79e+03   36.00     
   1   134   1     0     1     1  4.82e+03   4.82e+03   36.00     
   1   135   1     0     1     1  4.86e+03   4.86e+03   36.00     
   1   136   1     0     1     1  4.90e+03   4.90e+03   36.00     
   1   137   1     0     1     1  4.93e+03   4.93e+03   36.00     
   1   138   1     0     1     1  4.97e+03   4.97e+03   36.00     
   1   139   1     0     1     1  5.00e+03   5.00e+03   36.00     
   1   140   1     0     1     1  5.04e+03   5.04e+03   36.00     
   1   141   1     0     1     1  5.08e+03   5.08e+03   36.00     
   1   142   1     0     1     1  5.11e+03   5.11e+03   36.00     
   1   143   1     0     1     1  5.15e+03   5.15e+03   36.00     
   1   144   1     0     1     1  5.18e+03   5.18e+03   36.00     
   1   145   1     0     1     1  5.22e+03   5.22e+03   36.00     
   1   146   1     0     1     1  5.26e+03   5.26e+03   36.00     
   1   147   1     0     1     1  5.29e+03   5.29e+03   36.00     
   1   148   1     0     1     1  5.33e+03   5.33e+03   36.00     
   1   149   1     0     1     1  5.36e+03   5.36e+03   36.00     
   1   150   1     0     1     1  5.40e+03   5.40e+03   36.00     
   1   151   1     0     1     1  5.44e+03   5.44e+03   36.00     
   1   152   1     0     1     1  5.47e+03   5.47e+03   36.00     
   1   153   1     0     1     1  5.51e+03   5.51e+03   36.00     
   1   154   1     0     1     1  5.54e+03   5.54e+03   36.00     
   1   155   1     0     1     1  5.58e+03   5.58e+03   36.00     
   1   156   1     0     1     1  5.62e+03   5.62e+03   36.00     
   1   157   1     0     1     1  5.65e+03   5.65e+03   36.00     
   1   158   1     0     1     1  5.69e+03   5.69e+03   36.00     
   1   159   1     0     1     1  5.72e+03   5.72e+03   36.00     
   1   160   1     0     1     1  5.76e+03   5.76e+03   36.00     
   1   161   1     0     1     1  5.80e+03   5.80e+03   36.00     
   1   162   1     0     1     1  5.83e+03   5.83e+03   36.00     
   1   163   1     0     1     1  5.87e+03   5.87e+03   36.00     
   1   164   1     0     1     1  5.90e+03   5.90e+03   36.00     
   1   165   1     0     1     1  5.94e+03   5.94e+03   36.00     
   1   166   1     0     1     1  5.98e+03   5.98e+03   36.00     
   1   167   1     0     1     1  6.01e+03   6.01e+03   36.00     
   1   168   1     0     1     1  6.05e+03   6.05e+03   36.00     
   1   169   1     0     1     1  6.08e+03   6.08e+03   36.00     
   1   170   1     0     1     1  6.12e+03   6.12e+03   36.00     
   1   171   1     0     1     1  6.16e+03   6.16e+03   36.00     
   1   172   1     0     1     1  6.19e+03   6.19e+03   36.00     
   1   173   1     0     1     1  6.23e+03   6.23e+03   36.00     
   1   174   1     0     1     1  6.26e+03   6.26e+03   36.00     
   1   175   1     0     1     1  6.30e+03   6.30e+03   36.00     
   1   176   1     0     1     1  6.34e+03   6.34e+03   36.00     
   1   177   1     0     1     1  6.37e+03   6.37e+03   36.00     
   1   178   1     0     1     1  6.41e+03   6.41e+03   36.00     
   1   179   1     0     1     1  6.44e+03   6.44e+03   36.00     
   1   180   1     0     1     1  6.48e+03   6.48e+03   36.00     
   1   181   1     0     1     1  6.52e+03   6.52e+03   36.00     
   1   182   1     0     1     1  6.55e+03   6.55e+03   36.00     
   1   183   1     0     1     1  6.59e+03   6.59e+03   36.00     
   1   184   1     0     1     1  6.62e+03   6.62e+03   36.00     
   1   185   1     0     1     1  6.66e+03   6.66e+03   36.00     
   1   186   1     0     1     1  6.70e+03   6.70e+03   36.00     
   1   187   1     0     1     1  6.73e+03   6.73e+03   36.00     
   1   188   1     0     1     1  6.77e+03   6.77e+03   36.00     
   1   189   1     0     1     1  6.80e+03   6.80e+03   36.00     
   1   190   1     0     1     1  6.84e+03   6.84e+03   36.00     
   1   191   1     0     1     1  6.88e+03   6.88e+03   36.00     
   1   192   1     0     1     1  6.91e+03   6.91e+03   36.00     
   1   193   1     0     1     1  6.95e+03   6.95e+03   36.00     
   1   194   1     0     1     1  6.98e+03   6.98e+03   36.00     
   1   195   1     0     1     1  7.02e+03   7.02e+03   36.00     
   1   196   1     0     1     1  7.06e+03   7.06e+03   36.00     
   1   197   1     0     1     1  7.09e+03   7.09e+03   36.00     
   1   198   1     0     1     1  7.13e+03   7.13e+03   36.00     
   1   199   1     0     1     1  7.16e+03   7.16e+03   36.00     
   1   200   1     0     1     1  7.20e+03   7.20e+03   36.00     
                          
 THE ANALYSIS HAS COMPLETED SUCCESSFULLY
