*Heading
** Job name: CP1000_diffusion Model name: SupraPlus_4420
** Generated by: Abaqus/CAE 2023.HF4
*Preprint, echo=NO, model=NO, history=NO, contact=NO
**
** PARTS
**
*Part, name=Part-1
*Node
      1, 0.0149999997, 0.00150000001,           0.
      2, 0.0149999997, 0.00150000001, 0.00100000005
      3, 0.0149999997,           0., 0.00100000005
      4, 0.0149999997,           0.,           0.
      5,           0., 0.00150000001, 0.00100000005
      6,           0.,           0., 0.00100000005
      7,           0.,           0.,           0.
      8,           0., 0.00150000001,           0.
      9,           0., 0.00249999994,           0.
     10,           0., 0.00249999994, 0.00100000005
     11,           0., 0.00400000019, 0.00100000005
     12,           0., 0.00400000019,           0.
     13, 0.0149999997, 0.00249999994, 0.00100000005
     14, 0.0149999997, 0.00400000019, 0.00100000005
     15, 0.0149999997, 0.00400000019,           0.
     16, 0.0149999997, 0.00249999994,           0.
     17, 0.0149999997, 0.00150000001, 0.000250000012
     18, 0.0149999997, 0.00150000001, 0.000500000024
     19, 0.0149999997, 0.00150000001, 0.000750000007
     20, 0.0149999997, 0.00124999997, 0.00100000005
** ... 5760 like lines cut
*Element, type=C3D8T
   1,  180, 1311, 3207,  651,    1,   17,  621,   32
   2, 1311, 1312, 3208, 3207,   17,   18,  622,  621
   3, 1312, 1313, 3209, 3208,   18,   19,  623,  622
   4, 1313,  247,  981, 3209,   19,    2,   20,  623
   5,  651, 3207, 3210,  652,   32,  621,  624,   31
   6, 3207, 3208, 3211, 3210,  621,  622,  625,  624
   7, 3208, 3209, 3212, 3211,  622,  623,  626,  625
   8, 3209,  981,  982, 3212,  623,   20,   21,  626
   9,  652, 3210, 3213,  653,   31,  624,  627,   30
  10, 3210, 3211, 3214, 3213,  624,  625,  628,  627
  11, 3211, 3212, 3215, 3214,  625,  626,  629,  628
  12, 3212,  982,  983, 3215,  626,   21,   22,  629
  13,  653, 3213, 3216,  654,   30,  627,  630,   29
  14, 3213, 3214, 3217, 3216,  627,  628,  631,  630
  15, 3214, 3215, 3218, 3217,  628,  629,  632,  631
  16, 3215,  983,  984, 3218,  629,   22,   23,  632
  17,  654, 3216, 3219,  655,   29,  630,  633,   28
  18, 3216, 3217, 3220, 3219,  630,  631,  634,  633
  19, 3217, 3218, 3221, 3220,  631,  632,  635,  634
  20, 3218,  984,  985, 3221,  632,   23,   24,  635
** ... 4268 like lines cut
*Nset, nset=Set-9, generate
    1,  5780,     1
*Elset, elset=Set-9, generate
    1,  4288,     1
** Section: Section-1
*Solid Section, elset=Set-9, material=Material-1
,
*End Part
**  
**
** ASSEMBLY
**
*Assembly, name=Assembly
**  
*Instance, name=Part-1-1, part=Part-1
*End Instance
**  
*Nset, nset=Set-2, instance=Part-1-1
   4,   7,  11,  14,  15,  49,  50,  51,  52,  53,  54,  55,  56,  57,  58,  59
  60,  61,  62,  63,  64,  65,  66,  67,  68,  69,  70,  71,  72,  73,  74,  75
  76,  77,  78,  79,  80,  81,  82,  83,  84,  85,  86,  87,  88,  89,  90,  91
  92,  93,  94,  95,  96,  97,  98,  99, 100, 101, 102, 103, 104, 105, 106, 107
 108, 109, 110, 111, 112, 113, 114, 337, 338, 339, 477, 478, 479, 480, 481, 482
 483, 484, 485, 486, 487, 488, 489, 490, 491, 492, 493, 494, 495, 496, 497, 498
 499, 500, 501, 502, 503, 504, 505, 506, 507, 508, 509, 510, 511, 512, 513, 514
 515, 516, 517, 518, 519, 520, 521, 522, 523, 524, 525, 526, 527, 528, 529, 530
 531, 532, 533, 534, 535, 536, 537, 538, 539, 540, 541, 542
*Elset, elset=Set-2, instance=Part-1-1
   21,   45,   69,   93,  117,  141,  165,  189,  213,  237,  261,  285,  309,  333,  357,  381
  405,  429,  453,  477,  501,  525,  549,  573,  597,  621,  645,  669,  693,  717,  741,  765
  789,  813,  837,  861,  885,  909,  933,  957,  981, 1005, 1029, 1053, 1077, 1101, 1125, 1149
 1173, 1197, 1221, 1245, 1269, 1293, 1317, 1341, 1365, 1389, 1413, 1437, 1461, 1485, 1509, 1533
 1557, 1581, 1605, 1632, 1656, 1680, 1704, 1728, 1752, 1776, 1800, 1824, 1848, 1872, 1896, 1920
 1944, 1968, 1992, 2016, 2040, 2064, 2088, 2112, 2136, 2160, 2184, 2208, 2232, 2256, 2280, 2304
 2328, 2352, 2376, 2400, 2424, 2448, 2472, 2496, 2520, 2544, 2568, 2592, 2616, 2640, 2664, 2688
 2712, 2736, 2760, 2784, 2808, 2832, 2856, 2880, 2904, 2928, 2952, 2976, 3000, 3024, 3048, 3072
 3096, 3120, 3144, 3168, 3192, 3213, 3214, 3215, 3216
*Nset, nset=Set-3, instance=Part-1-1, generate
    1,  5780,     1
*Elset, elset=Set-3, instance=Part-1-1, generate
    1,  4288,     1
*Nset, nset=Set-4, instance=Part-1-1
    1,    2,    3,    4,    5,    6,    7,    8,    9,   10,   11,   12,   13,   14,   15,   16
   17,   18,   19,   20,   21,   22,   23,   24,   25,   26,   27,   28,   29,   30,   31,   32
   33,   34,   35,   36,   37,   38,   39,   40,   41,   42,   43,   44,   45,   46,   47,   48
   49,   50,   51,   52,   53,   54,   55,   56,   57,   58,   59,   60,   61,   62,   63,   64
   65,   66,   67,   68,   69,   70,   71,   72,   73,   74,   75,   76,   77,   78,   79,   80
   81,   82,   83,   84,   85,   86,   87,   88,   89,   90,   91,   92,   93,   94,   95,   96
   97,   98,   99,  100,  101,  102,  103,  104,  105,  106,  107,  108,  109,  110,  111,  112
  113,  114,  115,  116,  117,  118,  119,  120,  121,  122,  123,  124,  125,  126,  127,  128
  129,  130,  131,  132,  133,  134,  135,  136,  137,  138,  139,  140,  141,  142,  143,  144
  145,  146,  147,  148,  149,  150,  151,  152,  153,  154,  155,  156,  157,  158,  159,  160
  161,  162,  163,  164,  165,  166,  167,  168,  169,  170,  171,  172,  173,  174,  175,  176
  177,  178,  179,  180,  181,  182,  183,  184,  185,  186,  187,  188,  189,  190,  191,  192
  193,  194,  195,  196,  197,  198,  199,  200,  201,  202,  203,  204,  205,  206,  207,  208
  209,  210,  211,  212,  213,  214,  215,  216,  217,  218,  219,  220,  221,  222,  223,  224
  225,  226,  227,  228,  229,  230,  231,  232,  233,  234,  235,  236,  237,  238,  239,  240
  241,  242,  243,  244,  245,  246,  247,  248,  249,  250,  251,  252,  253,  254,  255,  256
  257,  258,  259,  260,  261,  262,  263,  264,  265,  266,  267,  268,  269,  270,  271,  272
  273,  274,  275,  276,  277,  278,  279,  280,  281,  282,  283,  284,  285,  286,  287,  288
  289,  290,  291,  292,  293,  294,  295,  296,  297,  298,  299,  300,  301,  302,  303,  304
  305,  306,  307,  308,  309,  310,  311,  312,  313,  314,  315,  316,  317,  318,  319,  320
** ... 156 like lines cut
*Elset, elset=Set-4, instance=Part-1-1
    1,    2,    3,    4,    5,    6,    7,    8,    9,   10,   11,   12,   13,   14,   15,   16
   17,   18,   19,   20,   21,   22,   23,   24,   25,   28,   29,   32,   33,   36,   37,   40
   41,   44,   45,   46,   47,   48,   49,   52,   53,   56,   57,   60,   61,   64,   65,   68
   69,   70,   71,   72,   73,   76,   77,   80,   81,   84,   85,   88,   89,   92,   93,   94
   95,   96,   97,  100,  101,  104,  105,  108,  109,  112,  113,  116,  117,  118,  119,  120
  121,  124,  125,  128,  129,  132,  133,  136,  137,  140,  141,  142,  143,  144,  145,  148
  149,  152,  153,  156,  157,  160,  161,  164,  165,  166,  167,  168,  169,  172,  173,  176
  177,  180,  181,  184,  185,  188,  189,  190,  191,  192,  193,  196,  197,  200,  201,  204
  205,  208,  209,  212,  213,  214,  215,  216,  217,  220,  221,  224,  225,  228,  229,  232
  233,  236,  237,  238,  239,  240,  241,  244,  245,  248,  249,  252,  253,  256,  257,  260
  261,  262,  263,  264,  265,  268,  269,  272,  273,  276,  277,  280,  281,  284,  285,  286
  287,  288,  289,  292,  293,  296,  297,  300,  301,  304,  305,  308,  309,  310,  311,  312
  313,  316,  317,  320,  321,  324,  325,  328,  329,  332,  333,  334,  335,  336,  337,  340
  341,  344,  345,  348,  349,  352,  353,  356,  357,  358,  359,  360,  361,  364,  365,  368
  369,  372,  373,  376,  377,  380,  381,  382,  383,  384,  385,  388,  389,  392,  393,  396
  397,  400,  401,  404,  405,  406,  407,  408,  409,  412,  413,  416,  417,  420,  421,  424
  425,  428,  429,  430,  431,  432,  433,  436,  437,  440,  441,  444,  445,  448,  449,  452
  453,  454,  455,  456,  457,  460,  461,  464,  465,  468,  469,  472,  473,  476,  477,  478
  479,  480,  481,  484,  485,  488,  489,  492,  493,  496,  497,  500,  501,  502,  503,  504
  505,  508,  509,  512,  513,  516,  517,  520,  521,  524,  525,  526,  527,  528,  529,  532
** ... 134 like lines cut
*End Assembly
*Amplitude, name=Amp-1
             0.,              1.,           7200.,              1.
** 
** MATERIALS
** 
*Material, name=Material-1
*Density
1.,
*Depvar
      2,
*User Material, constants=4, type=THERMAL
 8.31446,     300.,    2e-06, 3.07e-10
*User Material, constants=2, type=MECHANICAL
 2e+11, 0.3
** 
** PREDEFINED FIELDS
** 
** Name: Predefined Field-1   Type: Temperature
*Initial Conditions, type=TEMPERATURE
Set-3, 0.
** ----------------------------------------------------------------
** 
** STEP: Step-1
** 
*Step, name=Step-1, nlgeom=YES, inc=100000
*Coupled Temperature-displacement, creep=none
36., 7200., 
** 
** BOUNDARY CONDITIONS
** 
** Name: diffusion Type: Temperature
*Boundary, amplitude=Amp-1
Set-4, 11, 11, 13.13
** 
** OUTPUT REQUESTS
** 
*Restart, write, frequency=0
** 
** FIELD OUTPUT: F-Output-1
** 
*Output, field, number interval=200
*Element Output, directions=YES
SDV, 
*Output, history, frequency=0
*End Step
