1

   Abaqus 2023.HF4                                  Date 28-Aug-2024   Time 18:52:37
   For use by AALTO UNIVERSITY under license from Dassault Systemes or its subsidiary.

                                                                                 
                                                                                 
 STEP    1     INCREMENT     1     STEP TIME    0.00    


                        S T E P       1     C O U P L E D - T E M P E R A T U R E - D I S P L A C E M E N T   A N A L Y S I S


                                                                                          

          FIXED TIME INCREMENTS
          TIME INCREMENT IS                                     36.0    
          TIME PERIOD IS                                       7.200E+03

          CREEP AND SWELLING EFFECTS ARE OMITTED IN THIS STEP
          THE RATE DEPENDENCY WILL BE CONSIDERED IN THIS STEP

          CREEP AND SWELLING EFFECTS WILL BE IGNORED.

 CONVERGENCE TOLERANCE PARAMETERS FOR FORCE    
     CRITERION FOR RESIDUAL FORCE     FOR A NONLINEAR PROBLEM          5.000E-03
     CRITERION FOR DISP.    CORRECTION IN A NONLINEAR PROBLEM          1.000E-02
     INITIAL VALUE OF TIME AVERAGE FORCE                               1.000E-02
     AVERAGE FORCE     IS TIME AVERAGE FORCE    
     ALTERNATE CRIT. FOR RESIDUAL FORCE     FOR A NONLINEAR PROBLEM    2.000E-02
     CRITERION FOR ZERO FORCE     RELATIVE TO TIME AVRG. FORCE         1.000E-05
     CRITERION FOR RESIDUAL FORCE     WHEN THERE IS ZERO FLUX          1.000E-05
     CRITERION FOR DISP.    CORRECTION WHEN THERE IS ZERO FLUX         1.000E-03
     CRITERION FOR RESIDUAL FORCE     FOR A LINEAR INCREMENT           1.000E-08
     FIELD CONVERSION RATIO                                             1.00    
     CRITERION FOR ZERO FORCE     REL. TO TIME AVRG. MAX. FORCE        1.000E-05
     CRITERION FOR ZERO DISP.    RELATIVE TO CHARACTERISTIC LENGTH     1.000E-08

 CONVERGENCE TOLERANCE PARAMETERS FOR HEAT FLUX
     CRITERION FOR RESIDUAL HEAT FLUX FOR A NONLINEAR PROBLEM          5.000E-03
     CRITERION FOR TEMP.    CORRECTION IN A NONLINEAR PROBLEM          1.000E-02
     INITIAL VALUE OF TIME AVERAGE HEAT FLUX                           1.000E-02
     AVERAGE HEAT FLUX IS TIME AVERAGE HEAT FLUX
     ALTERNATE CRIT. FOR RESIDUAL HEAT FLUX FOR A NONLINEAR PROBLEM    2.000E-02
     CRITERION FOR ZERO HEAT FLUX RELATIVE TO TIME AVRG. HEAT FLUX     1.000E-05
     CRITERION FOR RESIDUAL HEAT FLUX WHEN THERE IS ZERO FLUX          1.000E-05
     CRITERION FOR TEMP.    CORRECTION WHEN THERE IS ZERO FLUX         1.000E-03
     CRITERION FOR RESIDUAL HEAT FLUX FOR A LINEAR INCREMENT           1.000E-08
     FIELD CONVERSION RATIO                                             1.00    
     CRITERION FOR ZERO HEAT FLUX REL. TO TIME AVRG. MAX. HEAT FLUX    1.000E-05

     VOLUMETRIC STRAIN COMPATIBILITY TOLERANCE FOR HYBRID SOLIDS       1.000E-05
     AXIAL STRAIN COMPATIBILITY TOLERANCE FOR HYBRID BEAMS             1.000E-05
     TRANS. SHEAR STRAIN COMPATIBILITY TOLERANCE FOR HYBRID BEAMS      1.000E-05
     SOFT CONTACT CONSTRAINT COMPATIBILITY TOLERANCE FOR P>P0          5.000E-03
     SOFT CONTACT CONSTRAINT COMPATIBILITY TOLERANCE FOR P=0.0         0.100    
     CONTACT FORCE ERROR TOLERANCE FOR CONVERT SDI=YES                 1.00    
     DISPLACEMENT COMPATIBILITY TOLERANCE FOR DCOUP ELEMENTS           1.000E-05
     ROTATION COMPATIBILITY TOLERANCE FOR DCOUP ELEMENTS               1.000E-05

 EQUILIBRIUM WILL BE CHECKED FOR SEVERE DISCONTINUITY ITERATIONS

 ITERATION CONTROL PARAMETERS:
     FIRST EQUILIBRIUM ITERATION FOR CONSECUTIVE DIVERGENCE CHECK              4
     EQUILIBRIUM ITERATION AFTER WHICH ALTERNATE RESIDUAL IS USED              9
     MAXIMUM EQUILIBRIUM ITERATIONS ALLOWED                                   16
     MAXIMUM ITERATIONS FOR SEVERE DISCONTINUITIES                            12
     GLOBAL STABILIZATION CONTROL IS NOT USED

          PRINT OF INCREMENT NUMBER, TIME, ETC., EVERY    1  INCREMENTS

     THE MAXIMUM NUMBER OF INCREMENTS IN THIS STEP IS                  100000

          LARGE DISPLACEMENT THEORY WILL BE USED

          UNSYMMETRIC MATRIX STORAGE AND SOLUTION WILL BE USED

     LINEAR EXTRAPOLATION WILL BE USED

     CHARACTERISTIC ELEMENT LENGTH     2.413E-04

     DETAILS REGARDING ACTUAL SOLUTION WAVEFRONT REQUESTED

     DETAILED OUTPUT OF DIAGNOSTICS TO DATABASE REQUESTED

     PRINT OF INCREMENT NUMBER, TIME, ETC., TO THE MESSAGE FILE EVERY     1  INCREMENTS

     ELEMENT OPERATIONS WILL BE CARRIED OUT IN PARALLEL USING   8 THREADS ON 1 DOMAIN

     PARALLEL CONTACT TRACKING ENABLED


     COLLECTING MODEL CONSTRAINT INFORMATION FOR OVERCONSTRAINT CHECKS

     COLLECTING STEP CONSTRAINT INFORMATION FOR OVERCONSTRAINT CHECKS


  INCREMENT     1 STARTS. ATTEMPT NUMBER  1, TIME INCREMENT   36.0    
 
     INITIAL ELEMENT LOAD BALANCE
            DOMAIN    1     THREAD    NUMBER OF ELEMENTS
                              1            552
                              2            576
                              3            616
                              4            464
                              5            544
                              6            584
                              7            408
                              8            544
 
	UNSYMMETRIC NEW DIRECT SPARSE SOLVER RUNNING ON
 	1 HOST x 1 MPI RANK PER HOST x 8 THREADS PER RANK
        NUMBER OF EQUATIONS:  5780
        NUMBER OF RHS:        1
        NUMBER OF FLOPS:      1.180e+08
        SOLVER ELAPSED TIME:  8ms

               CONVERGENCE CHECKS FOR EQUILIBRIUM ITERATION     1


 AVERAGE FORCE                       0.00       TIME AVG. FORCE       1.000E-02
 ALL FORCE     RESIDUALS ARE ZERO
 ALL DISP.    INCREMENTS ARE ZERO
 ALL CORRECTION TO DISP.    ARE ZERO
          THERE IS ZERO FORCE     EVERYWHERE

 AVERAGE HEAT FLUX                  3.004E-13   TIME AVG. HEAT FLUX   1.000E-02
 LARGEST RESIDUAL HEAT FLUX        -2.739E-27   AT NODE       5079   DOF 11
   INSTANCE: PART-1-1                                                                        
 LARGEST INCREMENT OF TEMP.          13.1       AT NODE          1   DOF 11
   INSTANCE: PART-1-1                                                                        
 LARGEST CORRECTION TO TEMP.         13.1       AT NODE          1   DOF 11
   INSTANCE: PART-1-1                                                                        
          THERE IS ZERO HEAT FLUX EVERYWHERE
 

 ***WARNING: THERE IS ZERO HEAT FLUX EVERYWHERE IN THE MODEL BASED ON THE 
             DEFAULT CRITERION. PLEASE CHECK THE VALUE OF THE AVERAGE HEAT FLUX 
             DURING THE CURRENT ITERATION TO VERIFY THAT THE HEAT FLUX IS SMALL 
             ENOUGH TO BE TREATED AS ZERO. IF NOT, PLEASE USE THE SOLUTION 
             CONTROLS TO RESET THE CRITERION FOR ZERO HEAT FLUX.

 ITERATION SUMMARY FOR THE INCREMENT:   1 TOTAL ITERATIONS, OF WHICH
   0 ARE SEVERE DISCONTINUITY ITERATIONS AND  1 ARE EQUILIBRIUM ITERATIONS.

 TIME INCREMENT COMPLETED   36.0    ,  FRACTION OF STEP COMPLETED  5.000E-03
 STEP TIME COMPLETED        36.0    ,  TOTAL TIME COMPLETED         36.0    


  INCREMENT     2 STARTS. ATTEMPT NUMBER  1, TIME INCREMENT   36.0    
 
	UNSYMMETRIC NEW DIRECT SPARSE SOLVER RUNNING ON
 	1 HOST x 1 MPI RANK PER HOST x 8 THREADS PER RANK
        NUMBER OF EQUATIONS:  5780
        NUMBER OF RHS:        1
        NUMBER OF FLOPS:      1.180e+08
        SOLVER ELAPSED TIME:  6ms

               CONVERGENCE CHECKS FOR EQUILIBRIUM ITERATION     1


 AVERAGE FORCE                       0.00       TIME AVG. FORCE       1.000E-02
 ALL FORCE     RESIDUALS ARE ZERO
 ALL DISP.    INCREMENTS ARE ZERO
 ALL CORRECTION TO DISP.    ARE ZERO
          THERE IS ZERO FORCE     EVERYWHERE

 AVERAGE HEAT FLUX                  9.387E-14   TIME AVG. HEAT FLUX   1.000E-02
 LARGEST RESIDUAL HEAT FLUX         1.048E-27   AT NODE       5334   DOF 11
   INSTANCE: PART-1-1                                                                        
 LARGEST INCREMENT OF TEMP.          2.51       AT NODE       3219   DOF 11
   INSTANCE: PART-1-1                                                                        
 LARGEST CORRECTION TO TEMP.        -13.1       AT NODE          1   DOF 11
   INSTANCE: PART-1-1                                                                        
          THERE IS ZERO HEAT FLUX EVERYWHERE
 

 ***WARNING: THERE IS ZERO HEAT FLUX EVERYWHERE IN THE MODEL BASED ON THE 
             DEFAULT CRITERION. PLEASE CHECK THE VALUE OF THE AVERAGE HEAT FLUX 
             DURING THE CURRENT ITERATION TO VERIFY THAT THE HEAT FLUX IS SMALL 
             ENOUGH TO BE TREATED AS ZERO. IF NOT, PLEASE USE THE SOLUTION 
             CONTROLS TO RESET THE CRITERION FOR ZERO HEAT FLUX.

 ITERATION SUMMARY FOR THE INCREMENT:   1 TOTAL ITERATIONS, OF WHICH
   0 ARE SEVERE DISCONTINUITY ITERATIONS AND  1 ARE EQUILIBRIUM ITERATIONS.

 TIME INCREMENT COMPLETED   36.0    ,  FRACTION OF STEP COMPLETED  1.000E-02
 STEP TIME COMPLETED        72.0    ,  TOTAL TIME COMPLETED         72.0    


  INCREMENT     3 STARTS. ATTEMPT NUMBER  1, TIME INCREMENT   36.0    
 
	UNSYMMETRIC NEW DIRECT SPARSE SOLVER RUNNING ON
 	1 HOST x 1 MPI RANK PER HOST x 8 THREADS PER RANK
        NUMBER OF EQUATIONS:  5780
        NUMBER OF RHS:        1
        NUMBER OF FLOPS:      1.180e+08
        SOLVER ELAPSED TIME:  6ms

               CONVERGENCE CHECKS FOR EQUILIBRIUM ITERATION     1


 AVERAGE FORCE                       0.00       TIME AVG. FORCE       1.000E-02
 ALL FORCE     RESIDUALS ARE ZERO
 ALL DISP.    INCREMENTS ARE ZERO
 ALL CORRECTION TO DISP.    ARE ZERO
          THERE IS ZERO FORCE     EVERYWHERE

 AVERAGE HEAT FLUX                  8.391E-14   TIME AVG. HEAT FLUX   1.000E-02
 LARGEST RESIDUAL HEAT FLUX         9.340E-28   AT NODE       4316   DOF 11
   INSTANCE: PART-1-1                                                                        
 LARGEST INCREMENT OF TEMP.          1.77       AT NODE       3219   DOF 11
   INSTANCE: PART-1-1                                                                        
 LARGEST CORRECTION TO TEMP.       -0.740       AT NODE       4194   DOF 11
   INSTANCE: PART-1-1                                                                        
          THERE IS ZERO HEAT FLUX EVERYWHERE
 

 ***WARNING: THERE IS ZERO HEAT FLUX EVERYWHERE IN THE MODEL BASED ON THE 
             DEFAULT CRITERION. PLEASE CHECK THE VALUE OF THE AVERAGE HEAT FLUX 
             DURING THE CURRENT ITERATION TO VERIFY THAT THE HEAT FLUX IS SMALL 
             ENOUGH TO BE TREATED AS ZERO. IF NOT, PLEASE USE THE SOLUTION 
             CONTROLS TO RESET THE CRITERION FOR ZERO HEAT FLUX.

 ITERATION SUMMARY FOR THE INCREMENT:   1 TOTAL ITERATIONS, OF WHICH
   0 ARE SEVERE DISCONTINUITY ITERATIONS AND  1 ARE EQUILIBRIUM ITERATIONS.

 TIME INCREMENT COMPLETED   36.0    ,  FRACTION OF STEP COMPLETED  1.500E-02
 STEP TIME COMPLETED        108.    ,  TOTAL TIME COMPLETED         108.    


  INCREMENT     4 STARTS. ATTEMPT NUMBER  1, TIME INCREMENT   36.0    
 
	UNSYMMETRIC NEW DIRECT SPARSE SOLVER RUNNING ON
 	1 HOST x 1 MPI RANK PER HOST x 8 THREADS PER RANK
        NUMBER OF EQUATIONS:  5780
        NUMBER OF RHS:        1
        NUMBER OF FLOPS:      1.180e+08
        SOLVER ELAPSED TIME:  7ms

               CONVERGENCE CHECKS FOR EQUILIBRIUM ITERATION     1


 AVERAGE FORCE                       0.00       TIME AVG. FORCE       1.000E-02
 ALL FORCE     RESIDUALS ARE ZERO
 ALL DISP.    INCREMENTS ARE ZERO
 ALL CORRECTION TO DISP.    ARE ZERO
          THERE IS ZERO FORCE     EVERYWHERE

 AVERAGE HEAT FLUX                  7.503E-14   TIME AVG. HEAT FLUX   1.000E-02
 LARGEST RESIDUAL HEAT FLUX        -1.035E-27   AT NODE       3236   DOF 11
   INSTANCE: PART-1-1                                                                        
 LARGEST INCREMENT OF TEMP.          1.29       AT NODE       3235   DOF 11
   INSTANCE: PART-1-1                                                                        
 LARGEST CORRECTION TO TEMP.       -0.506       AT NODE       4194   DOF 11
   INSTANCE: PART-1-1                                                                        
          THERE IS ZERO HEAT FLUX EVERYWHERE
 

 ***WARNING: THERE IS ZERO HEAT FLUX EVERYWHERE IN THE MODEL BASED ON THE 
             DEFAULT CRITERION. PLEASE CHECK THE VALUE OF THE AVERAGE HEAT FLUX 
             DURING THE CURRENT ITERATION TO VERIFY THAT THE HEAT FLUX IS SMALL 
             ENOUGH TO BE TREATED AS ZERO. IF NOT, PLEASE USE THE SOLUTION 
             CONTROLS TO RESET THE CRITERION FOR ZERO HEAT FLUX.

 ITERATION SUMMARY FOR THE INCREMENT:   1 TOTAL ITERATIONS, OF WHICH
   0 ARE SEVERE DISCONTINUITY ITERATIONS AND  1 ARE EQUILIBRIUM ITERATIONS.

 TIME INCREMENT COMPLETED   36.0    ,  FRACTION OF STEP COMPLETED  2.000E-02
 STEP TIME COMPLETED        144.    ,  TOTAL TIME COMPLETED         144.    


  INCREMENT     5 STARTS. ATTEMPT NUMBER  1, TIME INCREMENT   36.0    
 
	UNSYMMETRIC NEW DIRECT SPARSE SOLVER RUNNING ON
 	1 HOST x 1 MPI RANK PER HOST x 8 THREADS PER RANK
        NUMBER OF EQUATIONS:  5780
        NUMBER OF RHS:        1
        NUMBER OF FLOPS:      1.180e+08
        SOLVER ELAPSED TIME:  7ms

               CONVERGENCE CHECKS FOR EQUILIBRIUM ITERATION     1


 AVERAGE FORCE                       0.00       TIME AVG. FORCE       1.000E-02
 ALL FORCE     RESIDUALS ARE ZERO
 ALL DISP.    INCREMENTS ARE ZERO
 ALL CORRECTION TO DISP.    ARE ZERO
          THERE IS ZERO FORCE     EVERYWHERE

 AVERAGE HEAT FLUX                  6.710E-14   TIME AVG. HEAT FLUX   1.000E-02
 LARGEST RESIDUAL HEAT FLUX        -9.845E-28   AT NODE       4601   DOF 11
   INSTANCE: PART-1-1                                                                        
 LARGEST INCREMENT OF TEMP.          1.15       AT NODE       3232   DOF 11
   INSTANCE: PART-1-1                                                                        
 LARGEST CORRECTION TO TEMP.       -0.350       AT NODE       4194   DOF 11
   INSTANCE: PART-1-1                                                                        
          THERE IS ZERO HEAT FLUX EVERYWHERE
 

 ***WARNING: THERE IS ZERO HEAT FLUX EVERYWHERE IN THE MODEL BASED ON THE 
             DEFAULT CRITERION. PLEASE CHECK THE VALUE OF THE AVERAGE HEAT FLUX 
             DURING THE CURRENT ITERATION TO VERIFY THAT THE HEAT FLUX IS SMALL 
             ENOUGH TO BE TREATED AS ZERO. IF NOT, PLEASE USE THE SOLUTION 
             CONTROLS TO RESET THE CRITERION FOR ZERO HEAT FLUX.

 ITERATION SUMMARY FOR THE INCREMENT:   1 TOTAL ITERATIONS, OF WHICH
   0 ARE SEVERE DISCONTINUITY ITERATIONS AND  1 ARE EQUILIBRIUM ITERATIONS.

 TIME INCREMENT COMPLETED   36.0    ,  FRACTION OF STEP COMPLETED  2.500E-02
 STEP TIME COMPLETED        180.    ,  TOTAL TIME COMPLETED         180.    


  INCREMENT     6 STARTS. ATTEMPT NUMBER  1, TIME INCREMENT   36.0    
 
	UNSYMMETRIC NEW DIRECT SPARSE SOLVER RUNNING ON
 	1 HOST x 1 MPI RANK PER HOST x 8 THREADS PER RANK
        NUMBER OF EQUATIONS:  5780
        NUMBER OF RHS:        1
        NUMBER OF FLOPS:      1.180e+08
        SOLVER ELAPSED TIME:  8ms

               CONVERGENCE CHECKS FOR EQUILIBRIUM ITERATION     1


 AVERAGE FORCE                       0.00       TIME AVG. FORCE       1.000E-02
 ALL FORCE     RESIDUALS ARE ZERO
 ALL DISP.    INCREMENTS ARE ZERO
 ALL CORRECTION TO DISP.    ARE ZERO
          THERE IS ZERO FORCE     EVERYWHERE

 AVERAGE HEAT FLUX                  6.003E-14   TIME AVG. HEAT FLUX   1.000E-02
 LARGEST RESIDUAL HEAT FLUX         1.054E-27   AT NODE       4270   DOF 11
   INSTANCE: PART-1-1                                                                        
 LARGEST INCREMENT OF TEMP.          1.03       AT NODE       3232   DOF 11
   INSTANCE: PART-1-1                                                                        
 LARGEST CORRECTION TO TEMP.       -0.244       AT NODE       4194   DOF 11
   INSTANCE: PART-1-1                                                                        
          THERE IS ZERO HEAT FLUX EVERYWHERE
 

 ***WARNING: THERE IS ZERO HEAT FLUX EVERYWHERE IN THE MODEL BASED ON THE 
             DEFAULT CRITERION. PLEASE CHECK THE VALUE OF THE AVERAGE HEAT FLUX 
             DURING THE CURRENT ITERATION TO VERIFY THAT THE HEAT FLUX IS SMALL 
             ENOUGH TO BE TREATED AS ZERO. IF NOT, PLEASE USE THE SOLUTION 
             CONTROLS TO RESET THE CRITERION FOR ZERO HEAT FLUX.

 ITERATION SUMMARY FOR THE INCREMENT:   1 TOTAL ITERATIONS, OF WHICH
   0 ARE SEVERE DISCONTINUITY ITERATIONS AND  1 ARE EQUILIBRIUM ITERATIONS.

 TIME INCREMENT COMPLETED   36.0    ,  FRACTION OF STEP COMPLETED  3.000E-02
 STEP TIME COMPLETED        216.    ,  TOTAL TIME COMPLETED         216.    


  INCREMENT     7 STARTS. ATTEMPT NUMBER  1, TIME INCREMENT   36.0    
 
	UNSYMMETRIC NEW DIRECT SPARSE SOLVER RUNNING ON
 	1 HOST x 1 MPI RANK PER HOST x 8 THREADS PER RANK
        NUMBER OF EQUATIONS:  5780
        NUMBER OF RHS:        1
        NUMBER OF FLOPS:      1.180e+08
        SOLVER ELAPSED TIME:  7ms

               CONVERGENCE CHECKS FOR EQUILIBRIUM ITERATION     1


 AVERAGE FORCE                       0.00       TIME AVG. FORCE       1.000E-02
 ALL FORCE     RESIDUALS ARE ZERO
 ALL DISP.    INCREMENTS ARE ZERO
 ALL CORRECTION TO DISP.    ARE ZERO
          THERE IS ZERO FORCE     EVERYWHERE

 AVERAGE HEAT FLUX                  5.373E-14   TIME AVG. HEAT FLUX   1.000E-02
 LARGEST RESIDUAL HEAT FLUX        -1.123E-27   AT NODE       5776   DOF 11
   INSTANCE: PART-1-1                                                                        
 LARGEST INCREMENT OF TEMP.         0.905       AT NODE       3232   DOF 11
   INSTANCE: PART-1-1                                                                        
 LARGEST CORRECTION TO TEMP.       -0.172       AT NODE       4194   DOF 11
   INSTANCE: PART-1-1                                                                        
          THERE IS ZERO HEAT FLUX EVERYWHERE
 

 ***WARNING: THERE IS ZERO HEAT FLUX EVERYWHERE IN THE MODEL BASED ON THE 
             DEFAULT CRITERION. PLEASE CHECK THE VALUE OF THE AVERAGE HEAT FLUX 
             DURING THE CURRENT ITERATION TO VERIFY THAT THE HEAT FLUX IS SMALL 
             ENOUGH TO BE TREATED AS ZERO. IF NOT, PLEASE USE THE SOLUTION 
             CONTROLS TO RESET THE CRITERION FOR ZERO HEAT FLUX.

 ITERATION SUMMARY FOR THE INCREMENT:   1 TOTAL ITERATIONS, OF WHICH
   0 ARE SEVERE DISCONTINUITY ITERATIONS AND  1 ARE EQUILIBRIUM ITERATIONS.

 TIME INCREMENT COMPLETED   36.0    ,  FRACTION OF STEP COMPLETED  3.500E-02
 STEP TIME COMPLETED        252.    ,  TOTAL TIME COMPLETED         252.    


  INCREMENT     8 STARTS. ATTEMPT NUMBER  1, TIME INCREMENT   36.0    
 
	UNSYMMETRIC NEW DIRECT SPARSE SOLVER RUNNING ON
 	1 HOST x 1 MPI RANK PER HOST x 8 THREADS PER RANK
        NUMBER OF EQUATIONS:  5780
        NUMBER OF RHS:        1
        NUMBER OF FLOPS:      1.180e+08
        SOLVER ELAPSED TIME:  6ms

               CONVERGENCE CHECKS FOR EQUILIBRIUM ITERATION     1


 AVERAGE FORCE                       0.00       TIME AVG. FORCE       1.000E-02
 ALL FORCE     RESIDUALS ARE ZERO
 ALL DISP.    INCREMENTS ARE ZERO
 ALL CORRECTION TO DISP.    ARE ZERO
          THERE IS ZERO FORCE     EVERYWHERE

 AVERAGE HEAT FLUX                  4.811E-14   TIME AVG. HEAT FLUX   1.000E-02
 LARGEST RESIDUAL HEAT FLUX         1.111E-27   AT NODE       4341   DOF 11
   INSTANCE: PART-1-1                                                                        
 LARGEST INCREMENT OF TEMP.         0.803       AT NODE       3247   DOF 11
   INSTANCE: PART-1-1                                                                        
 LARGEST CORRECTION TO TEMP.       -0.129       AT NODE       4180   DOF 11
   INSTANCE: PART-1-1                                                                        
          THERE IS ZERO HEAT FLUX EVERYWHERE
 

 ***WARNING: THERE IS ZERO HEAT FLUX EVERYWHERE IN THE MODEL BASED ON THE 
             DEFAULT CRITERION. PLEASE CHECK THE VALUE OF THE AVERAGE HEAT FLUX 
             DURING THE CURRENT ITERATION TO VERIFY THAT THE HEAT FLUX IS SMALL 
             ENOUGH TO BE TREATED AS ZERO. IF NOT, PLEASE USE THE SOLUTION 
             CONTROLS TO RESET THE CRITERION FOR ZERO HEAT FLUX.

 ITERATION SUMMARY FOR THE INCREMENT:   1 TOTAL ITERATIONS, OF WHICH
   0 ARE SEVERE DISCONTINUITY ITERATIONS AND  1 ARE EQUILIBRIUM ITERATIONS.

 TIME INCREMENT COMPLETED   36.0    ,  FRACTION OF STEP COMPLETED  4.000E-02
 STEP TIME COMPLETED        288.    ,  TOTAL TIME COMPLETED         288.    


  INCREMENT     9 STARTS. ATTEMPT NUMBER  1, TIME INCREMENT   36.0    
 
	UNSYMMETRIC NEW DIRECT SPARSE SOLVER RUNNING ON
 	1 HOST x 1 MPI RANK PER HOST x 8 THREADS PER RANK
        NUMBER OF EQUATIONS:  5780
        NUMBER OF RHS:        1
        NUMBER OF FLOPS:      1.180e+08
        SOLVER ELAPSED TIME:  7ms

               CONVERGENCE CHECKS FOR EQUILIBRIUM ITERATION     1


 AVERAGE FORCE                       0.00       TIME AVG. FORCE       1.000E-02
 ALL FORCE     RESIDUALS ARE ZERO
 ALL DISP.    INCREMENTS ARE ZERO
 ALL CORRECTION TO DISP.    ARE ZERO
          THERE IS ZERO FORCE     EVERYWHERE

 AVERAGE HEAT FLUX                  4.310E-14   TIME AVG. HEAT FLUX   1.000E-02
 LARGEST RESIDUAL HEAT FLUX        -1.098E-27   AT NODE       3360   DOF 11
   INSTANCE: PART-1-1                                                                        
 LARGEST INCREMENT OF TEMP.         0.725       AT NODE       3244   DOF 11
   INSTANCE: PART-1-1                                                                        
 LARGEST CORRECTION TO TEMP.       -0.110       AT NODE       4177   DOF 11
   INSTANCE: PART-1-1                                                                        
          THERE IS ZERO HEAT FLUX EVERYWHERE
 

 ***WARNING: THERE IS ZERO HEAT FLUX EVERYWHERE IN THE MODEL BASED ON THE 
             DEFAULT CRITERION. PLEASE CHECK THE VALUE OF THE AVERAGE HEAT FLUX 
             DURING THE CURRENT ITERATION TO VERIFY THAT THE HEAT FLUX IS SMALL 
             ENOUGH TO BE TREATED AS ZERO. IF NOT, PLEASE USE THE SOLUTION 
             CONTROLS TO RESET THE CRITERION FOR ZERO HEAT FLUX.

 ITERATION SUMMARY FOR THE INCREMENT:   1 TOTAL ITERATIONS, OF WHICH
   0 ARE SEVERE DISCONTINUITY ITERATIONS AND  1 ARE EQUILIBRIUM ITERATIONS.

 TIME INCREMENT COMPLETED   36.0    ,  FRACTION OF STEP COMPLETED  4.500E-02
 STEP TIME COMPLETED        324.    ,  TOTAL TIME COMPLETED         324.    


  INCREMENT    10 STARTS. ATTEMPT NUMBER  1, TIME INCREMENT   36.0    
 
	UNSYMMETRIC NEW DIRECT SPARSE SOLVER RUNNING ON
 	1 HOST x 1 MPI RANK PER HOST x 8 THREADS PER RANK
        NUMBER OF EQUATIONS:  5780
        NUMBER OF RHS:        1
        NUMBER OF FLOPS:      1.180e+08
        SOLVER ELAPSED TIME:  6ms

               CONVERGENCE CHECKS FOR EQUILIBRIUM ITERATION     1


 AVERAGE FORCE                       0.00       TIME AVG. FORCE       1.000E-02
 ALL FORCE     RESIDUALS ARE ZERO
 ALL DISP.    INCREMENTS ARE ZERO
 ALL CORRECTION TO DISP.    ARE ZERO
          THERE IS ZERO FORCE     EVERYWHERE

 AVERAGE HEAT FLUX                  3.862E-14   TIME AVG. HEAT FLUX   1.000E-02
 LARGEST RESIDUAL HEAT FLUX        -1.079E-27   AT NODE       3513   DOF 11
   INSTANCE: PART-1-1                                                                        
 LARGEST INCREMENT OF TEMP.         0.651       AT NODE       3244   DOF 11
   INSTANCE: PART-1-1                                                                        
 LARGEST CORRECTION TO TEMP.       -9.696E-02   AT NODE       4177   DOF 11
   INSTANCE: PART-1-1                                                                        
          THERE IS ZERO HEAT FLUX EVERYWHERE
 

 ***WARNING: THERE IS ZERO HEAT FLUX EVERYWHERE IN THE MODEL BASED ON THE 
             DEFAULT CRITERION. PLEASE CHECK THE VALUE OF THE AVERAGE HEAT FLUX 
             DURING THE CURRENT ITERATION TO VERIFY THAT THE HEAT FLUX IS SMALL 
             ENOUGH TO BE TREATED AS ZERO. IF NOT, PLEASE USE THE SOLUTION 
             CONTROLS TO RESET THE CRITERION FOR ZERO HEAT FLUX.

 ITERATION SUMMARY FOR THE INCREMENT:   1 TOTAL ITERATIONS, OF WHICH
   0 ARE SEVERE DISCONTINUITY ITERATIONS AND  1 ARE EQUILIBRIUM ITERATIONS.

 TIME INCREMENT COMPLETED   36.0    ,  FRACTION OF STEP COMPLETED  5.000E-02
 STEP TIME COMPLETED        360.    ,  TOTAL TIME COMPLETED         360.    


  INCREMENT    11 STARTS. ATTEMPT NUMBER  1, TIME INCREMENT   36.0    
 
	UNSYMMETRIC NEW DIRECT SPARSE SOLVER RUNNING ON
 	1 HOST x 1 MPI RANK PER HOST x 8 THREADS PER RANK
        NUMBER OF EQUATIONS:  5780
        NUMBER OF RHS:        1
        NUMBER OF FLOPS:      1.180e+08
        SOLVER ELAPSED TIME:  6ms

               CONVERGENCE CHECKS FOR EQUILIBRIUM ITERATION     1


 AVERAGE FORCE                       0.00       TIME AVG. FORCE       1.000E-02
 ALL FORCE     RESIDUALS ARE ZERO
 ALL DISP.    INCREMENTS ARE ZERO
 ALL CORRECTION TO DISP.    ARE ZERO
          THERE IS ZERO FORCE     EVERYWHERE

 AVERAGE HEAT FLUX                  3.462E-14   TIME AVG. HEAT FLUX   1.000E-02
 LARGEST RESIDUAL HEAT FLUX        -1.104E-27   AT NODE       3407   DOF 11
   INSTANCE: PART-1-1                                                                        
 LARGEST INCREMENT OF TEMP.         0.583       AT NODE       3259   DOF 11
   INSTANCE: PART-1-1                                                                        
 LARGEST CORRECTION TO TEMP.       -8.427E-02   AT NODE       3232   DOF 11
   INSTANCE: PART-1-1                                                                        
          THERE IS ZERO HEAT FLUX EVERYWHERE
 

 ***WARNING: THERE IS ZERO HEAT FLUX EVERYWHERE IN THE MODEL BASED ON THE 
             DEFAULT CRITERION. PLEASE CHECK THE VALUE OF THE AVERAGE HEAT FLUX 
             DURING THE CURRENT ITERATION TO VERIFY THAT THE HEAT FLUX IS SMALL 
             ENOUGH TO BE TREATED AS ZERO. IF NOT, PLEASE USE THE SOLUTION 
             CONTROLS TO RESET THE CRITERION FOR ZERO HEAT FLUX.

 ITERATION SUMMARY FOR THE INCREMENT:   1 TOTAL ITERATIONS, OF WHICH
   0 ARE SEVERE DISCONTINUITY ITERATIONS AND  1 ARE EQUILIBRIUM ITERATIONS.

 TIME INCREMENT COMPLETED   36.0    ,  FRACTION OF STEP COMPLETED  5.500E-02
 STEP TIME COMPLETED        396.    ,  TOTAL TIME COMPLETED         396.    


  INCREMENT    12 STARTS. ATTEMPT NUMBER  1, TIME INCREMENT   36.0    
 
	UNSYMMETRIC NEW DIRECT SPARSE SOLVER RUNNING ON
 	1 HOST x 1 MPI RANK PER HOST x 8 THREADS PER RANK
        NUMBER OF EQUATIONS:  5780
        NUMBER OF RHS:        1
        NUMBER OF FLOPS:      1.180e+08
        SOLVER ELAPSED TIME:  6ms

               CONVERGENCE CHECKS FOR EQUILIBRIUM ITERATION     1


 AVERAGE FORCE                       0.00       TIME AVG. FORCE       1.000E-02
 ALL FORCE     RESIDUALS ARE ZERO
 ALL DISP.    INCREMENTS ARE ZERO
 ALL CORRECTION TO DISP.    ARE ZERO
          THERE IS ZERO FORCE     EVERYWHERE

 AVERAGE HEAT FLUX                  3.104E-14   TIME AVG. HEAT FLUX   1.000E-02
 LARGEST RESIDUAL HEAT FLUX         1.070E-27   AT NODE       3442   DOF 11
   INSTANCE: PART-1-1                                                                        
 LARGEST INCREMENT OF TEMP.         0.524       AT NODE       3256   DOF 11
   INSTANCE: PART-1-1                                                                        
 LARGEST CORRECTION TO TEMP.       -7.245E-02   AT NODE       3232   DOF 11
   INSTANCE: PART-1-1                                                                        
          THERE IS ZERO HEAT FLUX EVERYWHERE
 

 ***WARNING: THERE IS ZERO HEAT FLUX EVERYWHERE IN THE MODEL BASED ON THE 
             DEFAULT CRITERION. PLEASE CHECK THE VALUE OF THE AVERAGE HEAT FLUX 
             DURING THE CURRENT ITERATION TO VERIFY THAT THE HEAT FLUX IS SMALL 
             ENOUGH TO BE TREATED AS ZERO. IF NOT, PLEASE USE THE SOLUTION 
             CONTROLS TO RESET THE CRITERION FOR ZERO HEAT FLUX.

 ITERATION SUMMARY FOR THE INCREMENT:   1 TOTAL ITERATIONS, OF WHICH
   0 ARE SEVERE DISCONTINUITY ITERATIONS AND  1 ARE EQUILIBRIUM ITERATIONS.

 TIME INCREMENT COMPLETED   36.0    ,  FRACTION OF STEP COMPLETED  6.000E-02
 STEP TIME COMPLETED        432.    ,  TOTAL TIME COMPLETED         432.    


  INCREMENT    13 STARTS. ATTEMPT NUMBER  1, TIME INCREMENT   36.0    
 
	UNSYMMETRIC NEW DIRECT SPARSE SOLVER RUNNING ON
 	1 HOST x 1 MPI RANK PER HOST x 8 THREADS PER RANK
        NUMBER OF EQUATIONS:  5780
        NUMBER OF RHS:        1
        NUMBER OF FLOPS:      1.180e+08
        SOLVER ELAPSED TIME:  7ms

               CONVERGENCE CHECKS FOR EQUILIBRIUM ITERATION     1


 AVERAGE FORCE                       0.00       TIME AVG. FORCE       1.000E-02
 ALL FORCE     RESIDUALS ARE ZERO
 ALL DISP.    INCREMENTS ARE ZERO
 ALL CORRECTION TO DISP.    ARE ZERO
          THERE IS ZERO FORCE     EVERYWHERE

 AVERAGE HEAT FLUX                  2.784E-14   TIME AVG. HEAT FLUX   1.000E-02
 LARGEST RESIDUAL HEAT FLUX         1.067E-27   AT NODE       4124   DOF 11
   INSTANCE: PART-1-1                                                                        
 LARGEST INCREMENT OF TEMP.         0.473       AT NODE       3256   DOF 11
   INSTANCE: PART-1-1                                                                        
 LARGEST CORRECTION TO TEMP.       -6.198E-02   AT NODE       3247   DOF 11
   INSTANCE: PART-1-1                                                                        
          THERE IS ZERO HEAT FLUX EVERYWHERE
 

 ***WARNING: THERE IS ZERO HEAT FLUX EVERYWHERE IN THE MODEL BASED ON THE 
             DEFAULT CRITERION. PLEASE CHECK THE VALUE OF THE AVERAGE HEAT FLUX 
             DURING THE CURRENT ITERATION TO VERIFY THAT THE HEAT FLUX IS SMALL 
             ENOUGH TO BE TREATED AS ZERO. IF NOT, PLEASE USE THE SOLUTION 
             CONTROLS TO RESET THE CRITERION FOR ZERO HEAT FLUX.

 ITERATION SUMMARY FOR THE INCREMENT:   1 TOTAL ITERATIONS, OF WHICH
   0 ARE SEVERE DISCONTINUITY ITERATIONS AND  1 ARE EQUILIBRIUM ITERATIONS.

 TIME INCREMENT COMPLETED   36.0    ,  FRACTION OF STEP COMPLETED  6.500E-02
 STEP TIME COMPLETED        468.    ,  TOTAL TIME COMPLETED         468.    


  INCREMENT    14 STARTS. ATTEMPT NUMBER  1, TIME INCREMENT   36.0    
 
	UNSYMMETRIC NEW DIRECT SPARSE SOLVER RUNNING ON
 	1 HOST x 1 MPI RANK PER HOST x 8 THREADS PER RANK
        NUMBER OF EQUATIONS:  5780
        NUMBER OF RHS:        1
        NUMBER OF FLOPS:      1.180e+08
        SOLVER ELAPSED TIME:  6ms

               CONVERGENCE CHECKS FOR EQUILIBRIUM ITERATION     1


 AVERAGE FORCE                       0.00       TIME AVG. FORCE       1.000E-02
 ALL FORCE     RESIDUALS ARE ZERO
 ALL DISP.    INCREMENTS ARE ZERO
 ALL CORRECTION TO DISP.    ARE ZERO
          THERE IS ZERO FORCE     EVERYWHERE

 AVERAGE HEAT FLUX                  2.498E-14   TIME AVG. HEAT FLUX   1.000E-02
 LARGEST RESIDUAL HEAT FLUX         1.101E-27   AT NODE       3371   DOF 11
   INSTANCE: PART-1-1                                                                        
 LARGEST INCREMENT OF TEMP.         0.426       AT NODE       3256   DOF 11
   INSTANCE: PART-1-1                                                                        
 LARGEST CORRECTION TO TEMP.       -5.426E-02   AT NODE       3247   DOF 11
   INSTANCE: PART-1-1                                                                        
          THERE IS ZERO HEAT FLUX EVERYWHERE
 

 ***WARNING: THERE IS ZERO HEAT FLUX EVERYWHERE IN THE MODEL BASED ON THE 
             DEFAULT CRITERION. PLEASE CHECK THE VALUE OF THE AVERAGE HEAT FLUX 
             DURING THE CURRENT ITERATION TO VERIFY THAT THE HEAT FLUX IS SMALL 
             ENOUGH TO BE TREATED AS ZERO. IF NOT, PLEASE USE THE SOLUTION 
             CONTROLS TO RESET THE CRITERION FOR ZERO HEAT FLUX.

 ITERATION SUMMARY FOR THE INCREMENT:   1 TOTAL ITERATIONS, OF WHICH
   0 ARE SEVERE DISCONTINUITY ITERATIONS AND  1 ARE EQUILIBRIUM ITERATIONS.

 TIME INCREMENT COMPLETED   36.0    ,  FRACTION OF STEP COMPLETED  7.000E-02
 STEP TIME COMPLETED        504.    ,  TOTAL TIME COMPLETED         504.    


  INCREMENT    15 STARTS. ATTEMPT NUMBER  1, TIME INCREMENT   36.0    
 
	UNSYMMETRIC NEW DIRECT SPARSE SOLVER RUNNING ON
 	1 HOST x 1 MPI RANK PER HOST x 8 THREADS PER RANK
        NUMBER OF EQUATIONS:  5780
        NUMBER OF RHS:        1
        NUMBER OF FLOPS:      1.180e+08
        SOLVER ELAPSED TIME:  7ms

               CONVERGENCE CHECKS FOR EQUILIBRIUM ITERATION     1


 AVERAGE FORCE                       0.00       TIME AVG. FORCE       1.000E-02
 ALL FORCE     RESIDUALS ARE ZERO
 ALL DISP.    INCREMENTS ARE ZERO
 ALL CORRECTION TO DISP.    ARE ZERO
          THERE IS ZERO FORCE     EVERYWHERE

 AVERAGE HEAT FLUX                  2.241E-14   TIME AVG. HEAT FLUX   1.000E-02
 LARGEST RESIDUAL HEAT FLUX        -1.098E-27   AT NODE       4337   DOF 11
   INSTANCE: PART-1-1                                                                        
 LARGEST INCREMENT OF TEMP.         0.384       AT NODE       3271   DOF 11
   INSTANCE: PART-1-1                                                                        
 LARGEST CORRECTION TO TEMP.       -4.781E-02   AT NODE       3244   DOF 11
   INSTANCE: PART-1-1                                                                        
          THERE IS ZERO HEAT FLUX EVERYWHERE
 

 ***WARNING: THERE IS ZERO HEAT FLUX EVERYWHERE IN THE MODEL BASED ON THE 
             DEFAULT CRITERION. PLEASE CHECK THE VALUE OF THE AVERAGE HEAT FLUX 
             DURING THE CURRENT ITERATION TO VERIFY THAT THE HEAT FLUX IS SMALL 
             ENOUGH TO BE TREATED AS ZERO. IF NOT, PLEASE USE THE SOLUTION 
             CONTROLS TO RESET THE CRITERION FOR ZERO HEAT FLUX.

 ITERATION SUMMARY FOR THE INCREMENT:   1 TOTAL ITERATIONS, OF WHICH
   0 ARE SEVERE DISCONTINUITY ITERATIONS AND  1 ARE EQUILIBRIUM ITERATIONS.

 TIME INCREMENT COMPLETED   36.0    ,  FRACTION OF STEP COMPLETED  7.500E-02
 STEP TIME COMPLETED        540.    ,  TOTAL TIME COMPLETED         540.    


  INCREMENT    16 STARTS. ATTEMPT NUMBER  1, TIME INCREMENT   36.0    
 
	UNSYMMETRIC NEW DIRECT SPARSE SOLVER RUNNING ON
 	1 HOST x 1 MPI RANK PER HOST x 8 THREADS PER RANK
        NUMBER OF EQUATIONS:  5780
        NUMBER OF RHS:        1
        NUMBER OF FLOPS:      1.180e+08
        SOLVER ELAPSED TIME:  7ms

               CONVERGENCE CHECKS FOR EQUILIBRIUM ITERATION     1


 AVERAGE FORCE                       0.00       TIME AVG. FORCE       1.000E-02
 ALL FORCE     RESIDUALS ARE ZERO
 ALL DISP.    INCREMENTS ARE ZERO
 ALL CORRECTION TO DISP.    ARE ZERO
          THERE IS ZERO FORCE     EVERYWHERE

 AVERAGE HEAT FLUX                  2.012E-14   TIME AVG. HEAT FLUX   1.000E-02
 LARGEST RESIDUAL HEAT FLUX        -1.126E-27   AT NODE       4843   DOF 11
   INSTANCE: PART-1-1                                                                        
 LARGEST INCREMENT OF TEMP.         0.347       AT NODE       3268   DOF 11
   INSTANCE: PART-1-1                                                                        
 LARGEST CORRECTION TO TEMP.       -4.250E-02   AT NODE       3244   DOF 11
   INSTANCE: PART-1-1                                                                        
          THERE IS ZERO HEAT FLUX EVERYWHERE
 

 ***WARNING: THERE IS ZERO HEAT FLUX EVERYWHERE IN THE MODEL BASED ON THE 
             DEFAULT CRITERION. PLEASE CHECK THE VALUE OF THE AVERAGE HEAT FLUX 
             DURING THE CURRENT ITERATION TO VERIFY THAT THE HEAT FLUX IS SMALL 
             ENOUGH TO BE TREATED AS ZERO. IF NOT, PLEASE USE THE SOLUTION 
             CONTROLS TO RESET THE CRITERION FOR ZERO HEAT FLUX.

 ITERATION SUMMARY FOR THE INCREMENT:   1 TOTAL ITERATIONS, OF WHICH
   0 ARE SEVERE DISCONTINUITY ITERATIONS AND  1 ARE EQUILIBRIUM ITERATIONS.

 TIME INCREMENT COMPLETED   36.0    ,  FRACTION OF STEP COMPLETED  8.000E-02
 STEP TIME COMPLETED        576.    ,  TOTAL TIME COMPLETED         576.    


  INCREMENT    17 STARTS. ATTEMPT NUMBER  1, TIME INCREMENT   36.0    
 
	UNSYMMETRIC NEW DIRECT SPARSE SOLVER RUNNING ON
 	1 HOST x 1 MPI RANK PER HOST x 8 THREADS PER RANK
        NUMBER OF EQUATIONS:  5780
        NUMBER OF RHS:        1
        NUMBER OF FLOPS:      1.180e+08
        SOLVER ELAPSED TIME:  6ms

               CONVERGENCE CHECKS FOR EQUILIBRIUM ITERATION     1


 AVERAGE FORCE                       0.00       TIME AVG. FORCE       1.000E-02
 ALL FORCE     RESIDUALS ARE ZERO
 ALL DISP.    INCREMENTS ARE ZERO
 ALL CORRECTION TO DISP.    ARE ZERO
          THERE IS ZERO FORCE     EVERYWHERE

 AVERAGE HEAT FLUX                  1.806E-14   TIME AVG. HEAT FLUX   1.000E-02
 LARGEST RESIDUAL HEAT FLUX         1.104E-27   AT NODE       3288   DOF 11
   INSTANCE: PART-1-1                                                                        
 LARGEST INCREMENT OF TEMP.         0.313       AT NODE       3268   DOF 11
   INSTANCE: PART-1-1                                                                        
 LARGEST CORRECTION TO TEMP.       -3.763E-02   AT NODE       3244   DOF 11
   INSTANCE: PART-1-1                                                                        
          THERE IS ZERO HEAT FLUX EVERYWHERE
 

 ***WARNING: THERE IS ZERO HEAT FLUX EVERYWHERE IN THE MODEL BASED ON THE 
             DEFAULT CRITERION. PLEASE CHECK THE VALUE OF THE AVERAGE HEAT FLUX 
             DURING THE CURRENT ITERATION TO VERIFY THAT THE HEAT FLUX IS SMALL 
             ENOUGH TO BE TREATED AS ZERO. IF NOT, PLEASE USE THE SOLUTION 
             CONTROLS TO RESET THE CRITERION FOR ZERO HEAT FLUX.

 ITERATION SUMMARY FOR THE INCREMENT:   1 TOTAL ITERATIONS, OF WHICH
   0 ARE SEVERE DISCONTINUITY ITERATIONS AND  1 ARE EQUILIBRIUM ITERATIONS.

 TIME INCREMENT COMPLETED   36.0    ,  FRACTION OF STEP COMPLETED  8.500E-02
 STEP TIME COMPLETED        612.    ,  TOTAL TIME COMPLETED         612.    


  INCREMENT    18 STARTS. ATTEMPT NUMBER  1, TIME INCREMENT   36.0    
 
	UNSYMMETRIC NEW DIRECT SPARSE SOLVER RUNNING ON
 	1 HOST x 1 MPI RANK PER HOST x 8 THREADS PER RANK
        NUMBER OF EQUATIONS:  5780
        NUMBER OF RHS:        1
        NUMBER OF FLOPS:      1.180e+08
        SOLVER ELAPSED TIME:  7ms

               CONVERGENCE CHECKS FOR EQUILIBRIUM ITERATION     1


 AVERAGE FORCE                       0.00       TIME AVG. FORCE       1.000E-02
 ALL FORCE     RESIDUALS ARE ZERO
 ALL DISP.    INCREMENTS ARE ZERO
 ALL CORRECTION TO DISP.    ARE ZERO
          THERE IS ZERO FORCE     EVERYWHERE

 AVERAGE HEAT FLUX                  1.622E-14   TIME AVG. HEAT FLUX   1.000E-02
 LARGEST RESIDUAL HEAT FLUX        -1.068E-27   AT NODE       5111   DOF 11
   INSTANCE: PART-1-1                                                                        
 LARGEST INCREMENT OF TEMP.         0.283       AT NODE       3283   DOF 11
   INSTANCE: PART-1-1                                                                        
 LARGEST CORRECTION TO TEMP.       -3.321E-02   AT NODE       3244   DOF 11
   INSTANCE: PART-1-1                                                                        
          THERE IS ZERO HEAT FLUX EVERYWHERE
 

 ***WARNING: THERE IS ZERO HEAT FLUX EVERYWHERE IN THE MODEL BASED ON THE 
             DEFAULT CRITERION. PLEASE CHECK THE VALUE OF THE AVERAGE HEAT FLUX 
             DURING THE CURRENT ITERATION TO VERIFY THAT THE HEAT FLUX IS SMALL 
             ENOUGH TO BE TREATED AS ZERO. IF NOT, PLEASE USE THE SOLUTION 
             CONTROLS TO RESET THE CRITERION FOR ZERO HEAT FLUX.

 ITERATION SUMMARY FOR THE INCREMENT:   1 TOTAL ITERATIONS, OF WHICH
   0 ARE SEVERE DISCONTINUITY ITERATIONS AND  1 ARE EQUILIBRIUM ITERATIONS.

 TIME INCREMENT COMPLETED   36.0    ,  FRACTION OF STEP COMPLETED  9.000E-02
 STEP TIME COMPLETED        648.    ,  TOTAL TIME COMPLETED         648.    


  INCREMENT    19 STARTS. ATTEMPT NUMBER  1, TIME INCREMENT   36.0    
 
	UNSYMMETRIC NEW DIRECT SPARSE SOLVER RUNNING ON
 	1 HOST x 1 MPI RANK PER HOST x 8 THREADS PER RANK
        NUMBER OF EQUATIONS:  5780
        NUMBER OF RHS:        1
        NUMBER OF FLOPS:      1.180e+08
        SOLVER ELAPSED TIME:  7ms

               CONVERGENCE CHECKS FOR EQUILIBRIUM ITERATION     1


 AVERAGE FORCE                       0.00       TIME AVG. FORCE       1.000E-02
 ALL FORCE     RESIDUALS ARE ZERO
 ALL DISP.    INCREMENTS ARE ZERO
 ALL CORRECTION TO DISP.    ARE ZERO
          THERE IS ZERO FORCE     EVERYWHERE

 AVERAGE HEAT FLUX                  1.457E-14   TIME AVG. HEAT FLUX   1.000E-02
 LARGEST RESIDUAL HEAT FLUX        -1.145E-27   AT NODE       4100   DOF 11
   INSTANCE: PART-1-1                                                                        
 LARGEST INCREMENT OF TEMP.         0.256       AT NODE       3283   DOF 11
   INSTANCE: PART-1-1                                                                        
 LARGEST CORRECTION TO TEMP.       -2.961E-02   AT NODE       3259   DOF 11
   INSTANCE: PART-1-1                                                                        
          THERE IS ZERO HEAT FLUX EVERYWHERE
 

 ***WARNING: THERE IS ZERO HEAT FLUX EVERYWHERE IN THE MODEL BASED ON THE 
             DEFAULT CRITERION. PLEASE CHECK THE VALUE OF THE AVERAGE HEAT FLUX 
             DURING THE CURRENT ITERATION TO VERIFY THAT THE HEAT FLUX IS SMALL 
             ENOUGH TO BE TREATED AS ZERO. IF NOT, PLEASE USE THE SOLUTION 
             CONTROLS TO RESET THE CRITERION FOR ZERO HEAT FLUX.

 ITERATION SUMMARY FOR THE INCREMENT:   1 TOTAL ITERATIONS, OF WHICH
   0 ARE SEVERE DISCONTINUITY ITERATIONS AND  1 ARE EQUILIBRIUM ITERATIONS.

 TIME INCREMENT COMPLETED   36.0    ,  FRACTION OF STEP COMPLETED  9.500E-02
 STEP TIME COMPLETED        684.    ,  TOTAL TIME COMPLETED         684.    


  INCREMENT    20 STARTS. ATTEMPT NUMBER  1, TIME INCREMENT   36.0    
 
	UNSYMMETRIC NEW DIRECT SPARSE SOLVER RUNNING ON
 	1 HOST x 1 MPI RANK PER HOST x 8 THREADS PER RANK
        NUMBER OF EQUATIONS:  5780
        NUMBER OF RHS:        1
        NUMBER OF FLOPS:      1.180e+08
        SOLVER ELAPSED TIME:  6ms

               CONVERGENCE CHECKS FOR EQUILIBRIUM ITERATION     1


 AVERAGE FORCE                       0.00       TIME AVG. FORCE       1.000E-02
 ALL FORCE     RESIDUALS ARE ZERO
 ALL DISP.    INCREMENTS ARE ZERO
 ALL CORRECTION TO DISP.    ARE ZERO
          THERE IS ZERO FORCE     EVERYWHERE

 AVERAGE HEAT FLUX                  1.309E-14   TIME AVG. HEAT FLUX   1.000E-02
 LARGEST RESIDUAL HEAT FLUX         1.095E-27   AT NODE       2513   DOF 11
   INSTANCE: PART-1-1                                                                        
 LARGEST INCREMENT OF TEMP.         0.231       AT NODE       1327   DOF 11
   INSTANCE: PART-1-1                                                                        
 LARGEST CORRECTION TO TEMP.       -2.635E-02   AT NODE       3259   DOF 11
   INSTANCE: PART-1-1                                                                        
          THERE IS ZERO HEAT FLUX EVERYWHERE
 

 ***WARNING: THERE IS ZERO HEAT FLUX EVERYWHERE IN THE MODEL BASED ON THE 
             DEFAULT CRITERION. PLEASE CHECK THE VALUE OF THE AVERAGE HEAT FLUX 
             DURING THE CURRENT ITERATION TO VERIFY THAT THE HEAT FLUX IS SMALL 
             ENOUGH TO BE TREATED AS ZERO. IF NOT, PLEASE USE THE SOLUTION 
             CONTROLS TO RESET THE CRITERION FOR ZERO HEAT FLUX.

 ITERATION SUMMARY FOR THE INCREMENT:   1 TOTAL ITERATIONS, OF WHICH
   0 ARE SEVERE DISCONTINUITY ITERATIONS AND  1 ARE EQUILIBRIUM ITERATIONS.

 TIME INCREMENT COMPLETED   36.0    ,  FRACTION OF STEP COMPLETED  0.100    
 STEP TIME COMPLETED        720.    ,  TOTAL TIME COMPLETED         720.    


  INCREMENT    21 STARTS. ATTEMPT NUMBER  1, TIME INCREMENT   36.0    
 
	UNSYMMETRIC NEW DIRECT SPARSE SOLVER RUNNING ON
 	1 HOST x 1 MPI RANK PER HOST x 8 THREADS PER RANK
        NUMBER OF EQUATIONS:  5780
        NUMBER OF RHS:        1
        NUMBER OF FLOPS:      1.180e+08
        SOLVER ELAPSED TIME:  6ms

               CONVERGENCE CHECKS FOR EQUILIBRIUM ITERATION     1


 AVERAGE FORCE                       0.00       TIME AVG. FORCE       1.000E-02
 ALL FORCE     RESIDUALS ARE ZERO
 ALL DISP.    INCREMENTS ARE ZERO
 ALL CORRECTION TO DISP.    ARE ZERO
          THERE IS ZERO FORCE     EVERYWHERE

 AVERAGE HEAT FLUX                  1.176E-14   TIME AVG. HEAT FLUX   1.000E-02
 LARGEST RESIDUAL HEAT FLUX        -1.089E-27   AT NODE       3498   DOF 11
   INSTANCE: PART-1-1                                                                        
 LARGEST INCREMENT OF TEMP.         0.209       AT NODE       1327   DOF 11
   INSTANCE: PART-1-1                                                                        
 LARGEST CORRECTION TO TEMP.       -2.364E-02   AT NODE       3256   DOF 11
   INSTANCE: PART-1-1                                                                        
          THERE IS ZERO HEAT FLUX EVERYWHERE
 

 ***WARNING: THERE IS ZERO HEAT FLUX EVERYWHERE IN THE MODEL BASED ON THE 
             DEFAULT CRITERION. PLEASE CHECK THE VALUE OF THE AVERAGE HEAT FLUX 
             DURING THE CURRENT ITERATION TO VERIFY THAT THE HEAT FLUX IS SMALL 
             ENOUGH TO BE TREATED AS ZERO. IF NOT, PLEASE USE THE SOLUTION 
             CONTROLS TO RESET THE CRITERION FOR ZERO HEAT FLUX.

 ITERATION SUMMARY FOR THE INCREMENT:   1 TOTAL ITERATIONS, OF WHICH
   0 ARE SEVERE DISCONTINUITY ITERATIONS AND  1 ARE EQUILIBRIUM ITERATIONS.

 TIME INCREMENT COMPLETED   36.0    ,  FRACTION OF STEP COMPLETED  0.105    
 STEP TIME COMPLETED        756.    ,  TOTAL TIME COMPLETED         756.    


  INCREMENT    22 STARTS. ATTEMPT NUMBER  1, TIME INCREMENT   36.0    
 
	UNSYMMETRIC NEW DIRECT SPARSE SOLVER RUNNING ON
 	1 HOST x 1 MPI RANK PER HOST x 8 THREADS PER RANK
        NUMBER OF EQUATIONS:  5780
        NUMBER OF RHS:        1
        NUMBER OF FLOPS:      1.180e+08
        SOLVER ELAPSED TIME:  7ms

               CONVERGENCE CHECKS FOR EQUILIBRIUM ITERATION     1


 AVERAGE FORCE                       0.00       TIME AVG. FORCE       1.000E-02
 ALL FORCE     RESIDUALS ARE ZERO
 ALL DISP.    INCREMENTS ARE ZERO
 ALL CORRECTION TO DISP.    ARE ZERO
          THERE IS ZERO FORCE     EVERYWHERE

 AVERAGE HEAT FLUX                  1.057E-14   TIME AVG. HEAT FLUX   1.000E-02
 LARGEST RESIDUAL HEAT FLUX        -1.076E-27   AT NODE       5243   DOF 11
   INSTANCE: PART-1-1                                                                        
 LARGEST INCREMENT OF TEMP.         0.189       AT NODE       1330   DOF 11
   INSTANCE: PART-1-1                                                                        
 LARGEST CORRECTION TO TEMP.       -2.118E-02   AT NODE       3256   DOF 11
   INSTANCE: PART-1-1                                                                        
          THERE IS ZERO HEAT FLUX EVERYWHERE
 

 ***WARNING: THERE IS ZERO HEAT FLUX EVERYWHERE IN THE MODEL BASED ON THE 
             DEFAULT CRITERION. PLEASE CHECK THE VALUE OF THE AVERAGE HEAT FLUX 
             DURING THE CURRENT ITERATION TO VERIFY THAT THE HEAT FLUX IS SMALL 
             ENOUGH TO BE TREATED AS ZERO. IF NOT, PLEASE USE THE SOLUTION 
             CONTROLS TO RESET THE CRITERION FOR ZERO HEAT FLUX.

 ITERATION SUMMARY FOR THE INCREMENT:   1 TOTAL ITERATIONS, OF WHICH
   0 ARE SEVERE DISCONTINUITY ITERATIONS AND  1 ARE EQUILIBRIUM ITERATIONS.

 TIME INCREMENT COMPLETED   36.0    ,  FRACTION OF STEP COMPLETED  0.110    
 STEP TIME COMPLETED        792.    ,  TOTAL TIME COMPLETED         792.    


  INCREMENT    23 STARTS. ATTEMPT NUMBER  1, TIME INCREMENT   36.0    
 
	UNSYMMETRIC NEW DIRECT SPARSE SOLVER RUNNING ON
 	1 HOST x 1 MPI RANK PER HOST x 8 THREADS PER RANK
        NUMBER OF EQUATIONS:  5780
        NUMBER OF RHS:        1
        NUMBER OF FLOPS:      1.180e+08
        SOLVER ELAPSED TIME:  6ms

               CONVERGENCE CHECKS FOR EQUILIBRIUM ITERATION     1


 AVERAGE FORCE                       0.00       TIME AVG. FORCE       1.000E-02
 ALL FORCE     RESIDUALS ARE ZERO
 ALL DISP.    INCREMENTS ARE ZERO
 ALL CORRECTION TO DISP.    ARE ZERO
          THERE IS ZERO FORCE     EVERYWHERE

 AVERAGE HEAT FLUX                  9.495E-15   TIME AVG. HEAT FLUX   1.000E-02
 LARGEST RESIDUAL HEAT FLUX        -1.131E-27   AT NODE       5759   DOF 11
   INSTANCE: PART-1-1                                                                        
 LARGEST INCREMENT OF TEMP.         0.171       AT NODE       5725   DOF 11
   INSTANCE: PART-1-1                                                                        
 LARGEST CORRECTION TO TEMP.       -1.896E-02   AT NODE       3271   DOF 11
   INSTANCE: PART-1-1                                                                        
          THERE IS ZERO HEAT FLUX EVERYWHERE
 

 ***WARNING: THERE IS ZERO HEAT FLUX EVERYWHERE IN THE MODEL BASED ON THE 
             DEFAULT CRITERION. PLEASE CHECK THE VALUE OF THE AVERAGE HEAT FLUX 
             DURING THE CURRENT ITERATION TO VERIFY THAT THE HEAT FLUX IS SMALL 
             ENOUGH TO BE TREATED AS ZERO. IF NOT, PLEASE USE THE SOLUTION 
             CONTROLS TO RESET THE CRITERION FOR ZERO HEAT FLUX.

 ITERATION SUMMARY FOR THE INCREMENT:   1 TOTAL ITERATIONS, OF WHICH
   0 ARE SEVERE DISCONTINUITY ITERATIONS AND  1 ARE EQUILIBRIUM ITERATIONS.

 TIME INCREMENT COMPLETED   36.0    ,  FRACTION OF STEP COMPLETED  0.115    
 STEP TIME COMPLETED        828.    ,  TOTAL TIME COMPLETED         828.    


  INCREMENT    24 STARTS. ATTEMPT NUMBER  1, TIME INCREMENT   36.0    
 
	UNSYMMETRIC NEW DIRECT SPARSE SOLVER RUNNING ON
 	1 HOST x 1 MPI RANK PER HOST x 8 THREADS PER RANK
        NUMBER OF EQUATIONS:  5780
        NUMBER OF RHS:        1
        NUMBER OF FLOPS:      1.180e+08
        SOLVER ELAPSED TIME:  7ms

               CONVERGENCE CHECKS FOR EQUILIBRIUM ITERATION     1


 AVERAGE FORCE                       0.00       TIME AVG. FORCE       1.000E-02
 ALL FORCE     RESIDUALS ARE ZERO
 ALL DISP.    INCREMENTS ARE ZERO
 ALL CORRECTION TO DISP.    ARE ZERO
          THERE IS ZERO FORCE     EVERYWHERE

 AVERAGE HEAT FLUX                  8.534E-15   TIME AVG. HEAT FLUX   1.000E-02
 LARGEST RESIDUAL HEAT FLUX        -1.067E-27   AT NODE       2496   DOF 11
   INSTANCE: PART-1-1                                                                        
 LARGEST INCREMENT OF TEMP.         0.155       AT NODE       5725   DOF 11
   INSTANCE: PART-1-1                                                                        
 LARGEST CORRECTION TO TEMP.       -1.705E-02   AT NODE       3271   DOF 11
   INSTANCE: PART-1-1                                                                        
          THERE IS ZERO HEAT FLUX EVERYWHERE
 

 ***WARNING: THERE IS ZERO HEAT FLUX EVERYWHERE IN THE MODEL BASED ON THE 
             DEFAULT CRITERION. PLEASE CHECK THE VALUE OF THE AVERAGE HEAT FLUX 
             DURING THE CURRENT ITERATION TO VERIFY THAT THE HEAT FLUX IS SMALL 
             ENOUGH TO BE TREATED AS ZERO. IF NOT, PLEASE USE THE SOLUTION 
             CONTROLS TO RESET THE CRITERION FOR ZERO HEAT FLUX.

 ITERATION SUMMARY FOR THE INCREMENT:   1 TOTAL ITERATIONS, OF WHICH
   0 ARE SEVERE DISCONTINUITY ITERATIONS AND  1 ARE EQUILIBRIUM ITERATIONS.

 TIME INCREMENT COMPLETED   36.0    ,  FRACTION OF STEP COMPLETED  0.120    
 STEP TIME COMPLETED        864.    ,  TOTAL TIME COMPLETED         864.    


  INCREMENT    25 STARTS. ATTEMPT NUMBER  1, TIME INCREMENT   36.0    
 
	UNSYMMETRIC NEW DIRECT SPARSE SOLVER RUNNING ON
 	1 HOST x 1 MPI RANK PER HOST x 8 THREADS PER RANK
        NUMBER OF EQUATIONS:  5780
        NUMBER OF RHS:        1
        NUMBER OF FLOPS:      1.180e+08
        SOLVER ELAPSED TIME:  6ms

               CONVERGENCE CHECKS FOR EQUILIBRIUM ITERATION     1


 AVERAGE FORCE                       0.00       TIME AVG. FORCE       1.000E-02
 ALL FORCE     RESIDUALS ARE ZERO
 ALL DISP.    INCREMENTS ARE ZERO
 ALL CORRECTION TO DISP.    ARE ZERO
          THERE IS ZERO FORCE     EVERYWHERE

 AVERAGE HEAT FLUX                  7.672E-15   TIME AVG. HEAT FLUX   1.000E-02
 LARGEST RESIDUAL HEAT FLUX        -1.100E-27   AT NODE       2465   DOF 11
   INSTANCE: PART-1-1                                                                        
 LARGEST INCREMENT OF TEMP.         0.140       AT NODE       5716   DOF 11
   INSTANCE: PART-1-1                                                                        
 LARGEST CORRECTION TO TEMP.       -1.531E-02   AT NODE       5116   DOF 11
   INSTANCE: PART-1-1                                                                        
          THERE IS ZERO HEAT FLUX EVERYWHERE
 

 ***WARNING: THERE IS ZERO HEAT FLUX EVERYWHERE IN THE MODEL BASED ON THE 
             DEFAULT CRITERION. PLEASE CHECK THE VALUE OF THE AVERAGE HEAT FLUX 
             DURING THE CURRENT ITERATION TO VERIFY THAT THE HEAT FLUX IS SMALL 
             ENOUGH TO BE TREATED AS ZERO. IF NOT, PLEASE USE THE SOLUTION 
             CONTROLS TO RESET THE CRITERION FOR ZERO HEAT FLUX.

 ITERATION SUMMARY FOR THE INCREMENT:   1 TOTAL ITERATIONS, OF WHICH
   0 ARE SEVERE DISCONTINUITY ITERATIONS AND  1 ARE EQUILIBRIUM ITERATIONS.

 TIME INCREMENT COMPLETED   36.0    ,  FRACTION OF STEP COMPLETED  0.125    
 STEP TIME COMPLETED        900.    ,  TOTAL TIME COMPLETED         900.    


  INCREMENT    26 STARTS. ATTEMPT NUMBER  1, TIME INCREMENT   36.0    
 
	UNSYMMETRIC NEW DIRECT SPARSE SOLVER RUNNING ON
 	1 HOST x 1 MPI RANK PER HOST x 8 THREADS PER RANK
        NUMBER OF EQUATIONS:  5780
        NUMBER OF RHS:        1
        NUMBER OF FLOPS:      1.180e+08
        SOLVER ELAPSED TIME:  8ms

               CONVERGENCE CHECKS FOR EQUILIBRIUM ITERATION     1


 AVERAGE FORCE                       0.00       TIME AVG. FORCE       1.000E-02
 ALL FORCE     RESIDUALS ARE ZERO
 ALL DISP.    INCREMENTS ARE ZERO
 ALL CORRECTION TO DISP.    ARE ZERO
          THERE IS ZERO FORCE     EVERYWHERE

 AVERAGE HEAT FLUX                  6.897E-15   TIME AVG. HEAT FLUX   1.000E-02
 LARGEST RESIDUAL HEAT FLUX        -1.122E-27   AT NODE       3943   DOF 11
   INSTANCE: PART-1-1                                                                        
 LARGEST INCREMENT OF TEMP.         0.127       AT NODE       5713   DOF 11
   INSTANCE: PART-1-1                                                                        
 LARGEST CORRECTION TO TEMP.       -1.378E-02   AT NODE       3268   DOF 11
   INSTANCE: PART-1-1                                                                        
          THERE IS ZERO HEAT FLUX EVERYWHERE
 

 ***WARNING: THERE IS ZERO HEAT FLUX EVERYWHERE IN THE MODEL BASED ON THE 
             DEFAULT CRITERION. PLEASE CHECK THE VALUE OF THE AVERAGE HEAT FLUX 
             DURING THE CURRENT ITERATION TO VERIFY THAT THE HEAT FLUX IS SMALL 
             ENOUGH TO BE TREATED AS ZERO. IF NOT, PLEASE USE THE SOLUTION 
             CONTROLS TO RESET THE CRITERION FOR ZERO HEAT FLUX.

 ITERATION SUMMARY FOR THE INCREMENT:   1 TOTAL ITERATIONS, OF WHICH
   0 ARE SEVERE DISCONTINUITY ITERATIONS AND  1 ARE EQUILIBRIUM ITERATIONS.

 TIME INCREMENT COMPLETED   36.0    ,  FRACTION OF STEP COMPLETED  0.130    
 STEP TIME COMPLETED        936.    ,  TOTAL TIME COMPLETED         936.    


  INCREMENT    27 STARTS. ATTEMPT NUMBER  1, TIME INCREMENT   36.0    
 
	UNSYMMETRIC NEW DIRECT SPARSE SOLVER RUNNING ON
 	1 HOST x 1 MPI RANK PER HOST x 8 THREADS PER RANK
        NUMBER OF EQUATIONS:  5780
        NUMBER OF RHS:        1
        NUMBER OF FLOPS:      1.180e+08
        SOLVER ELAPSED TIME:  7ms

               CONVERGENCE CHECKS FOR EQUILIBRIUM ITERATION     1


 AVERAGE FORCE                       0.00       TIME AVG. FORCE       1.000E-02
 ALL FORCE     RESIDUALS ARE ZERO
 ALL DISP.    INCREMENTS ARE ZERO
 ALL CORRECTION TO DISP.    ARE ZERO
          THERE IS ZERO FORCE     EVERYWHERE

 AVERAGE HEAT FLUX                  6.201E-15   TIME AVG. HEAT FLUX   1.000E-02
 LARGEST RESIDUAL HEAT FLUX         1.134E-27   AT NODE       3690   DOF 11
   INSTANCE: PART-1-1                                                                        
 LARGEST INCREMENT OF TEMP.         0.115       AT NODE       5713   DOF 11
   INSTANCE: PART-1-1                                                                        
 LARGEST CORRECTION TO TEMP.       -1.241E-02   AT NODE       3268   DOF 11
   INSTANCE: PART-1-1                                                                        
          THERE IS ZERO HEAT FLUX EVERYWHERE
 

 ***WARNING: THERE IS ZERO HEAT FLUX EVERYWHERE IN THE MODEL BASED ON THE 
             DEFAULT CRITERION. PLEASE CHECK THE VALUE OF THE AVERAGE HEAT FLUX 
             DURING THE CURRENT ITERATION TO VERIFY THAT THE HEAT FLUX IS SMALL 
             ENOUGH TO BE TREATED AS ZERO. IF NOT, PLEASE USE THE SOLUTION 
             CONTROLS TO RESET THE CRITERION FOR ZERO HEAT FLUX.

 ITERATION SUMMARY FOR THE INCREMENT:   1 TOTAL ITERATIONS, OF WHICH
   0 ARE SEVERE DISCONTINUITY ITERATIONS AND  1 ARE EQUILIBRIUM ITERATIONS.

 TIME INCREMENT COMPLETED   36.0    ,  FRACTION OF STEP COMPLETED  0.135    
 STEP TIME COMPLETED        972.    ,  TOTAL TIME COMPLETED         972.    


  INCREMENT    28 STARTS. ATTEMPT NUMBER  1, TIME INCREMENT   36.0    
 
	UNSYMMETRIC NEW DIRECT SPARSE SOLVER RUNNING ON
 	1 HOST x 1 MPI RANK PER HOST x 8 THREADS PER RANK
        NUMBER OF EQUATIONS:  5780
        NUMBER OF RHS:        1
        NUMBER OF FLOPS:      1.180e+08
        SOLVER ELAPSED TIME:  7ms

               CONVERGENCE CHECKS FOR EQUILIBRIUM ITERATION     1


 AVERAGE FORCE                       0.00       TIME AVG. FORCE       1.000E-02
 ALL FORCE     RESIDUALS ARE ZERO
 ALL DISP.    INCREMENTS ARE ZERO
 ALL CORRECTION TO DISP.    ARE ZERO
          THERE IS ZERO FORCE     EVERYWHERE

 AVERAGE HEAT FLUX                  5.576E-15   TIME AVG. HEAT FLUX   1.000E-02
 LARGEST RESIDUAL HEAT FLUX         1.120E-27   AT NODE       4742   DOF 11
   INSTANCE: PART-1-1                                                                        
 LARGEST INCREMENT OF TEMP.         0.104       AT NODE       5704   DOF 11
   INSTANCE: PART-1-1                                                                        
 LARGEST CORRECTION TO TEMP.       -1.119E-02   AT NODE       3283   DOF 11
   INSTANCE: PART-1-1                                                                        
          THERE IS ZERO HEAT FLUX EVERYWHERE
 

 ***WARNING: THERE IS ZERO HEAT FLUX EVERYWHERE IN THE MODEL BASED ON THE 
             DEFAULT CRITERION. PLEASE CHECK THE VALUE OF THE AVERAGE HEAT FLUX 
             DURING THE CURRENT ITERATION TO VERIFY THAT THE HEAT FLUX IS SMALL 
             ENOUGH TO BE TREATED AS ZERO. IF NOT, PLEASE USE THE SOLUTION 
             CONTROLS TO RESET THE CRITERION FOR ZERO HEAT FLUX.

 ITERATION SUMMARY FOR THE INCREMENT:   1 TOTAL ITERATIONS, OF WHICH
   0 ARE SEVERE DISCONTINUITY ITERATIONS AND  1 ARE EQUILIBRIUM ITERATIONS.

 TIME INCREMENT COMPLETED   36.0    ,  FRACTION OF STEP COMPLETED  0.140    
 STEP TIME COMPLETED       1.008E+03,  TOTAL TIME COMPLETED        1.008E+03


  INCREMENT    29 STARTS. ATTEMPT NUMBER  1, TIME INCREMENT   36.0    
 
	UNSYMMETRIC NEW DIRECT SPARSE SOLVER RUNNING ON
 	1 HOST x 1 MPI RANK PER HOST x 8 THREADS PER RANK
        NUMBER OF EQUATIONS:  5780
        NUMBER OF RHS:        1
        NUMBER OF FLOPS:      1.180e+08
        SOLVER ELAPSED TIME:  6ms

               CONVERGENCE CHECKS FOR EQUILIBRIUM ITERATION     1


 AVERAGE FORCE                       0.00       TIME AVG. FORCE       1.000E-02
 ALL FORCE     RESIDUALS ARE ZERO
 ALL DISP.    INCREMENTS ARE ZERO
 ALL CORRECTION TO DISP.    ARE ZERO
          THERE IS ZERO FORCE     EVERYWHERE

 AVERAGE HEAT FLUX                  5.014E-15   TIME AVG. HEAT FLUX   1.000E-02
 LARGEST RESIDUAL HEAT FLUX         1.095E-27   AT NODE       3430   DOF 11
   INSTANCE: PART-1-1                                                                        
 LARGEST INCREMENT OF TEMP.         9.454E-02   AT NODE       5704   DOF 11
   INSTANCE: PART-1-1                                                                        
 LARGEST CORRECTION TO TEMP.       -1.010E-02   AT NODE       3283   DOF 11
   INSTANCE: PART-1-1                                                                        
          THERE IS ZERO HEAT FLUX EVERYWHERE
 

 ***WARNING: THERE IS ZERO HEAT FLUX EVERYWHERE IN THE MODEL BASED ON THE 
             DEFAULT CRITERION. PLEASE CHECK THE VALUE OF THE AVERAGE HEAT FLUX 
             DURING THE CURRENT ITERATION TO VERIFY THAT THE HEAT FLUX IS SMALL 
             ENOUGH TO BE TREATED AS ZERO. IF NOT, PLEASE USE THE SOLUTION 
             CONTROLS TO RESET THE CRITERION FOR ZERO HEAT FLUX.

 ITERATION SUMMARY FOR THE INCREMENT:   1 TOTAL ITERATIONS, OF WHICH
   0 ARE SEVERE DISCONTINUITY ITERATIONS AND  1 ARE EQUILIBRIUM ITERATIONS.

 TIME INCREMENT COMPLETED   36.0    ,  FRACTION OF STEP COMPLETED  0.145    
 STEP TIME COMPLETED       1.044E+03,  TOTAL TIME COMPLETED        1.044E+03


  INCREMENT    30 STARTS. ATTEMPT NUMBER  1, TIME INCREMENT   36.0    
 
	UNSYMMETRIC NEW DIRECT SPARSE SOLVER RUNNING ON
 	1 HOST x 1 MPI RANK PER HOST x 8 THREADS PER RANK
        NUMBER OF EQUATIONS:  5780
        NUMBER OF RHS:        1
        NUMBER OF FLOPS:      1.180e+08
        SOLVER ELAPSED TIME:  6ms

               CONVERGENCE CHECKS FOR EQUILIBRIUM ITERATION     1


 AVERAGE FORCE                       0.00       TIME AVG. FORCE       1.000E-02
 ALL FORCE     RESIDUALS ARE ZERO
 ALL DISP.    INCREMENTS ARE ZERO
 ALL CORRECTION TO DISP.    ARE ZERO
          THERE IS ZERO FORCE     EVERYWHERE

 AVERAGE HEAT FLUX                  4.510E-15   TIME AVG. HEAT FLUX   1.000E-02
 LARGEST RESIDUAL HEAT FLUX         1.096E-27   AT NODE       3369   DOF 11
   INSTANCE: PART-1-1                                                                        
 LARGEST INCREMENT OF TEMP.         8.562E-02   AT NODE       5704   DOF 11
   INSTANCE: PART-1-1                                                                        
 LARGEST CORRECTION TO TEMP.       -9.108E-03   AT NODE       5098   DOF 11
   INSTANCE: PART-1-1                                                                        
          THERE IS ZERO HEAT FLUX EVERYWHERE
 

 ***WARNING: THERE IS ZERO HEAT FLUX EVERYWHERE IN THE MODEL BASED ON THE 
             DEFAULT CRITERION. PLEASE CHECK THE VALUE OF THE AVERAGE HEAT FLUX 
             DURING THE CURRENT ITERATION TO VERIFY THAT THE HEAT FLUX IS SMALL 
             ENOUGH TO BE TREATED AS ZERO. IF NOT, PLEASE USE THE SOLUTION 
             CONTROLS TO RESET THE CRITERION FOR ZERO HEAT FLUX.

 ITERATION SUMMARY FOR THE INCREMENT:   1 TOTAL ITERATIONS, OF WHICH
   0 ARE SEVERE DISCONTINUITY ITERATIONS AND  1 ARE EQUILIBRIUM ITERATIONS.

 TIME INCREMENT COMPLETED   36.0    ,  FRACTION OF STEP COMPLETED  0.150    
 STEP TIME COMPLETED       1.080E+03,  TOTAL TIME COMPLETED        1.080E+03


  INCREMENT    31 STARTS. ATTEMPT NUMBER  1, TIME INCREMENT   36.0    
 
	UNSYMMETRIC NEW DIRECT SPARSE SOLVER RUNNING ON
 	1 HOST x 1 MPI RANK PER HOST x 8 THREADS PER RANK
        NUMBER OF EQUATIONS:  5780
        NUMBER OF RHS:        1
        NUMBER OF FLOPS:      1.180e+08
        SOLVER ELAPSED TIME:  7ms

               CONVERGENCE CHECKS FOR EQUILIBRIUM ITERATION     1


 AVERAGE FORCE                       0.00       TIME AVG. FORCE       1.000E-02
 ALL FORCE     RESIDUALS ARE ZERO
 ALL DISP.    INCREMENTS ARE ZERO
 ALL CORRECTION TO DISP.    ARE ZERO
          THERE IS ZERO FORCE     EVERYWHERE

 AVERAGE HEAT FLUX                  4.056E-15   TIME AVG. HEAT FLUX   1.000E-02
 LARGEST RESIDUAL HEAT FLUX         1.093E-27   AT NODE       4755   DOF 11
   INSTANCE: PART-1-1                                                                        
 LARGEST INCREMENT OF TEMP.         7.753E-02   AT NODE       5704   DOF 11
   INSTANCE: PART-1-1                                                                        
 LARGEST CORRECTION TO TEMP.       -8.224E-03   AT NODE       1327   DOF 11
   INSTANCE: PART-1-1                                                                        
          THERE IS ZERO HEAT FLUX EVERYWHERE
 

 ***WARNING: THERE IS ZERO HEAT FLUX EVERYWHERE IN THE MODEL BASED ON THE 
             DEFAULT CRITERION. PLEASE CHECK THE VALUE OF THE AVERAGE HEAT FLUX 
             DURING THE CURRENT ITERATION TO VERIFY THAT THE HEAT FLUX IS SMALL 
             ENOUGH TO BE TREATED AS ZERO. IF NOT, PLEASE USE THE SOLUTION 
             CONTROLS TO RESET THE CRITERION FOR ZERO HEAT FLUX.

 ITERATION SUMMARY FOR THE INCREMENT:   1 TOTAL ITERATIONS, OF WHICH
   0 ARE SEVERE DISCONTINUITY ITERATIONS AND  1 ARE EQUILIBRIUM ITERATIONS.

 TIME INCREMENT COMPLETED   36.0    ,  FRACTION OF STEP COMPLETED  0.155    
 STEP TIME COMPLETED       1.116E+03,  TOTAL TIME COMPLETED        1.116E+03


  INCREMENT    32 STARTS. ATTEMPT NUMBER  1, TIME INCREMENT   36.0    
 
	UNSYMMETRIC NEW DIRECT SPARSE SOLVER RUNNING ON
 	1 HOST x 1 MPI RANK PER HOST x 8 THREADS PER RANK
        NUMBER OF EQUATIONS:  5780
        NUMBER OF RHS:        1
        NUMBER OF FLOPS:      1.180e+08
        SOLVER ELAPSED TIME:  7ms

               CONVERGENCE CHECKS FOR EQUILIBRIUM ITERATION     1


 AVERAGE FORCE                       0.00       TIME AVG. FORCE       1.000E-02
 ALL FORCE     RESIDUALS ARE ZERO
 ALL DISP.    INCREMENTS ARE ZERO
 ALL CORRECTION TO DISP.    ARE ZERO
          THERE IS ZERO FORCE     EVERYWHERE

 AVERAGE HEAT FLUX                  3.648E-15   TIME AVG. HEAT FLUX   1.000E-02
 LARGEST RESIDUAL HEAT FLUX         1.089E-27   AT NODE       1486   DOF 11
   INSTANCE: PART-1-1                                                                        
 LARGEST INCREMENT OF TEMP.         7.020E-02   AT NODE       5695   DOF 11
   INSTANCE: PART-1-1                                                                        
 LARGEST CORRECTION TO TEMP.       -7.429E-03   AT NODE       1327   DOF 11
   INSTANCE: PART-1-1                                                                        
          THERE IS ZERO HEAT FLUX EVERYWHERE
 

 ***WARNING: THERE IS ZERO HEAT FLUX EVERYWHERE IN THE MODEL BASED ON THE 
             DEFAULT CRITERION. PLEASE CHECK THE VALUE OF THE AVERAGE HEAT FLUX 
             DURING THE CURRENT ITERATION TO VERIFY THAT THE HEAT FLUX IS SMALL 
             ENOUGH TO BE TREATED AS ZERO. IF NOT, PLEASE USE THE SOLUTION 
             CONTROLS TO RESET THE CRITERION FOR ZERO HEAT FLUX.

 ITERATION SUMMARY FOR THE INCREMENT:   1 TOTAL ITERATIONS, OF WHICH
   0 ARE SEVERE DISCONTINUITY ITERATIONS AND  1 ARE EQUILIBRIUM ITERATIONS.

 TIME INCREMENT COMPLETED   36.0    ,  FRACTION OF STEP COMPLETED  0.160    
 STEP TIME COMPLETED       1.152E+03,  TOTAL TIME COMPLETED        1.152E+03


  INCREMENT    33 STARTS. ATTEMPT NUMBER  1, TIME INCREMENT   36.0    
 
	UNSYMMETRIC NEW DIRECT SPARSE SOLVER RUNNING ON
 	1 HOST x 1 MPI RANK PER HOST x 8 THREADS PER RANK
        NUMBER OF EQUATIONS:  5780
        NUMBER OF RHS:        1
        NUMBER OF FLOPS:      1.180e+08
        SOLVER ELAPSED TIME:  6ms

               CONVERGENCE CHECKS FOR EQUILIBRIUM ITERATION     1


 AVERAGE FORCE                       0.00       TIME AVG. FORCE       1.000E-02
 ALL FORCE     RESIDUALS ARE ZERO
 ALL DISP.    INCREMENTS ARE ZERO
 ALL CORRECTION TO DISP.    ARE ZERO
          THERE IS ZERO FORCE     EVERYWHERE

 AVERAGE HEAT FLUX                  3.282E-15   TIME AVG. HEAT FLUX   1.000E-02
 LARGEST RESIDUAL HEAT FLUX         1.124E-27   AT NODE       1490   DOF 11
   INSTANCE: PART-1-1                                                                        
 LARGEST INCREMENT OF TEMP.         6.357E-02   AT NODE       5695   DOF 11
   INSTANCE: PART-1-1                                                                        
 LARGEST CORRECTION TO TEMP.       -6.717E-03   AT NODE       1330   DOF 11
   INSTANCE: PART-1-1                                                                        
          THERE IS ZERO HEAT FLUX EVERYWHERE
 

 ***WARNING: THERE IS ZERO HEAT FLUX EVERYWHERE IN THE MODEL BASED ON THE 
             DEFAULT CRITERION. PLEASE CHECK THE VALUE OF THE AVERAGE HEAT FLUX 
             DURING THE CURRENT ITERATION TO VERIFY THAT THE HEAT FLUX IS SMALL 
             ENOUGH TO BE TREATED AS ZERO. IF NOT, PLEASE USE THE SOLUTION 
             CONTROLS TO RESET THE CRITERION FOR ZERO HEAT FLUX.

 ITERATION SUMMARY FOR THE INCREMENT:   1 TOTAL ITERATIONS, OF WHICH
   0 ARE SEVERE DISCONTINUITY ITERATIONS AND  1 ARE EQUILIBRIUM ITERATIONS.

 TIME INCREMENT COMPLETED   36.0    ,  FRACTION OF STEP COMPLETED  0.165    
 STEP TIME COMPLETED       1.188E+03,  TOTAL TIME COMPLETED        1.188E+03


  INCREMENT    34 STARTS. ATTEMPT NUMBER  1, TIME INCREMENT   36.0    
 
	UNSYMMETRIC NEW DIRECT SPARSE SOLVER RUNNING ON
 	1 HOST x 1 MPI RANK PER HOST x 8 THREADS PER RANK
        NUMBER OF EQUATIONS:  5780
        NUMBER OF RHS:        1
        NUMBER OF FLOPS:      1.180e+08
        SOLVER ELAPSED TIME:  8ms

               CONVERGENCE CHECKS FOR EQUILIBRIUM ITERATION     1


 AVERAGE FORCE                       0.00       TIME AVG. FORCE       1.000E-02
 ALL FORCE     RESIDUALS ARE ZERO
 ALL DISP.    INCREMENTS ARE ZERO
 ALL CORRECTION TO DISP.    ARE ZERO
          THERE IS ZERO FORCE     EVERYWHERE

 AVERAGE HEAT FLUX                  2.953E-15   TIME AVG. HEAT FLUX   1.000E-02
 LARGEST RESIDUAL HEAT FLUX        -1.084E-27   AT NODE       5236   DOF 11
   INSTANCE: PART-1-1                                                                        
 LARGEST INCREMENT OF TEMP.         5.755E-02   AT NODE       5695   DOF 11
   INSTANCE: PART-1-1                                                                        
 LARGEST CORRECTION TO TEMP.       -6.074E-03   AT NODE       1330   DOF 11
   INSTANCE: PART-1-1                                                                        
          THERE IS ZERO HEAT FLUX EVERYWHERE
 

 ***WARNING: THERE IS ZERO HEAT FLUX EVERYWHERE IN THE MODEL BASED ON THE 
             DEFAULT CRITERION. PLEASE CHECK THE VALUE OF THE AVERAGE HEAT FLUX 
             DURING THE CURRENT ITERATION TO VERIFY THAT THE HEAT FLUX IS SMALL 
             ENOUGH TO BE TREATED AS ZERO. IF NOT, PLEASE USE THE SOLUTION 
             CONTROLS TO RESET THE CRITERION FOR ZERO HEAT FLUX.

 ITERATION SUMMARY FOR THE INCREMENT:   1 TOTAL ITERATIONS, OF WHICH
   0 ARE SEVERE DISCONTINUITY ITERATIONS AND  1 ARE EQUILIBRIUM ITERATIONS.

 TIME INCREMENT COMPLETED   36.0    ,  FRACTION OF STEP COMPLETED  0.170    
 STEP TIME COMPLETED       1.224E+03,  TOTAL TIME COMPLETED        1.224E+03


  INCREMENT    35 STARTS. ATTEMPT NUMBER  1, TIME INCREMENT   36.0    
 
	UNSYMMETRIC NEW DIRECT SPARSE SOLVER RUNNING ON
 	1 HOST x 1 MPI RANK PER HOST x 8 THREADS PER RANK
        NUMBER OF EQUATIONS:  5780
        NUMBER OF RHS:        1
        NUMBER OF FLOPS:      1.180e+08
        SOLVER ELAPSED TIME:  6ms

               CONVERGENCE CHECKS FOR EQUILIBRIUM ITERATION     1


 AVERAGE FORCE                       0.00       TIME AVG. FORCE       1.000E-02
 ALL FORCE     RESIDUALS ARE ZERO
 ALL DISP.    INCREMENTS ARE ZERO
 ALL CORRECTION TO DISP.    ARE ZERO
          THERE IS ZERO FORCE     EVERYWHERE

 AVERAGE HEAT FLUX                  2.656E-15   TIME AVG. HEAT FLUX   1.000E-02
 LARGEST RESIDUAL HEAT FLUX        -1.097E-27   AT NODE       5586   DOF 11
   INSTANCE: PART-1-1                                                                        
 LARGEST INCREMENT OF TEMP.         5.210E-02   AT NODE       5686   DOF 11
   INSTANCE: PART-1-1                                                                        
 LARGEST CORRECTION TO TEMP.       -5.494E-03   AT NODE       5725   DOF 11
   INSTANCE: PART-1-1                                                                        
          THERE IS ZERO HEAT FLUX EVERYWHERE
 

 ***WARNING: THERE IS ZERO HEAT FLUX EVERYWHERE IN THE MODEL BASED ON THE 
             DEFAULT CRITERION. PLEASE CHECK THE VALUE OF THE AVERAGE HEAT FLUX 
             DURING THE CURRENT ITERATION TO VERIFY THAT THE HEAT FLUX IS SMALL 
             ENOUGH TO BE TREATED AS ZERO. IF NOT, PLEASE USE THE SOLUTION 
             CONTROLS TO RESET THE CRITERION FOR ZERO HEAT FLUX.

 ITERATION SUMMARY FOR THE INCREMENT:   1 TOTAL ITERATIONS, OF WHICH
   0 ARE SEVERE DISCONTINUITY ITERATIONS AND  1 ARE EQUILIBRIUM ITERATIONS.

 TIME INCREMENT COMPLETED   36.0    ,  FRACTION OF STEP COMPLETED  0.175    
 STEP TIME COMPLETED       1.260E+03,  TOTAL TIME COMPLETED        1.260E+03


  INCREMENT    36 STARTS. ATTEMPT NUMBER  1, TIME INCREMENT   36.0    
 
	UNSYMMETRIC NEW DIRECT SPARSE SOLVER RUNNING ON
 	1 HOST x 1 MPI RANK PER HOST x 8 THREADS PER RANK
        NUMBER OF EQUATIONS:  5780
        NUMBER OF RHS:        1
        NUMBER OF FLOPS:      1.180e+08
        SOLVER ELAPSED TIME:  6ms

               CONVERGENCE CHECKS FOR EQUILIBRIUM ITERATION     1


 AVERAGE FORCE                       0.00       TIME AVG. FORCE       1.000E-02
 ALL FORCE     RESIDUALS ARE ZERO
 ALL DISP.    INCREMENTS ARE ZERO
 ALL CORRECTION TO DISP.    ARE ZERO
          THERE IS ZERO FORCE     EVERYWHERE

 AVERAGE HEAT FLUX                  2.390E-15   TIME AVG. HEAT FLUX   1.000E-02
 LARGEST RESIDUAL HEAT FLUX         1.059E-27   AT NODE       1398   DOF 11
   INSTANCE: PART-1-1                                                                        
 LARGEST INCREMENT OF TEMP.         4.716E-02   AT NODE       5686   DOF 11
   INSTANCE: PART-1-1                                                                        
 LARGEST CORRECTION TO TEMP.       -4.970E-03   AT NODE       5725   DOF 11
   INSTANCE: PART-1-1                                                                        
          THERE IS ZERO HEAT FLUX EVERYWHERE
 

 ***WARNING: THERE IS ZERO HEAT FLUX EVERYWHERE IN THE MODEL BASED ON THE 
             DEFAULT CRITERION. PLEASE CHECK THE VALUE OF THE AVERAGE HEAT FLUX 
             DURING THE CURRENT ITERATION TO VERIFY THAT THE HEAT FLUX IS SMALL 
             ENOUGH TO BE TREATED AS ZERO. IF NOT, PLEASE USE THE SOLUTION 
             CONTROLS TO RESET THE CRITERION FOR ZERO HEAT FLUX.

 ITERATION SUMMARY FOR THE INCREMENT:   1 TOTAL ITERATIONS, OF WHICH
   0 ARE SEVERE DISCONTINUITY ITERATIONS AND  1 ARE EQUILIBRIUM ITERATIONS.

 TIME INCREMENT COMPLETED   36.0    ,  FRACTION OF STEP COMPLETED  0.180    
 STEP TIME COMPLETED       1.296E+03,  TOTAL TIME COMPLETED        1.296E+03


  INCREMENT    37 STARTS. ATTEMPT NUMBER  1, TIME INCREMENT   36.0    
 
	UNSYMMETRIC NEW DIRECT SPARSE SOLVER RUNNING ON
 	1 HOST x 1 MPI RANK PER HOST x 8 THREADS PER RANK
        NUMBER OF EQUATIONS:  5780
        NUMBER OF RHS:        1
        NUMBER OF FLOPS:      1.180e+08
        SOLVER ELAPSED TIME:  6ms

               CONVERGENCE CHECKS FOR EQUILIBRIUM ITERATION     1


 AVERAGE FORCE                       0.00       TIME AVG. FORCE       1.000E-02
 ALL FORCE     RESIDUALS ARE ZERO
 ALL DISP.    INCREMENTS ARE ZERO
 ALL CORRECTION TO DISP.    ARE ZERO
          THERE IS ZERO FORCE     EVERYWHERE

 AVERAGE HEAT FLUX                  2.150E-15   TIME AVG. HEAT FLUX   1.000E-02
 LARGEST RESIDUAL HEAT FLUX        -1.087E-27   AT NODE       4602   DOF 11
   INSTANCE: PART-1-1                                                                        
 LARGEST INCREMENT OF TEMP.         4.268E-02   AT NODE       5686   DOF 11
   INSTANCE: PART-1-1                                                                        
 LARGEST CORRECTION TO TEMP.       -4.498E-03   AT NODE       5716   DOF 11
   INSTANCE: PART-1-1                                                                        
          THERE IS ZERO HEAT FLUX EVERYWHERE
 

 ***WARNING: THERE IS ZERO HEAT FLUX EVERYWHERE IN THE MODEL BASED ON THE 
             DEFAULT CRITERION. PLEASE CHECK THE VALUE OF THE AVERAGE HEAT FLUX 
             DURING THE CURRENT ITERATION TO VERIFY THAT THE HEAT FLUX IS SMALL 
             ENOUGH TO BE TREATED AS ZERO. IF NOT, PLEASE USE THE SOLUTION 
             CONTROLS TO RESET THE CRITERION FOR ZERO HEAT FLUX.

 ITERATION SUMMARY FOR THE INCREMENT:   1 TOTAL ITERATIONS, OF WHICH
   0 ARE SEVERE DISCONTINUITY ITERATIONS AND  1 ARE EQUILIBRIUM ITERATIONS.

 TIME INCREMENT COMPLETED   36.0    ,  FRACTION OF STEP COMPLETED  0.185    
 STEP TIME COMPLETED       1.332E+03,  TOTAL TIME COMPLETED        1.332E+03


  INCREMENT    38 STARTS. ATTEMPT NUMBER  1, TIME INCREMENT   36.0    
 
	UNSYMMETRIC NEW DIRECT SPARSE SOLVER RUNNING ON
 	1 HOST x 1 MPI RANK PER HOST x 8 THREADS PER RANK
        NUMBER OF EQUATIONS:  5780
        NUMBER OF RHS:        1
        NUMBER OF FLOPS:      1.180e+08
        SOLVER ELAPSED TIME:  6ms

               CONVERGENCE CHECKS FOR EQUILIBRIUM ITERATION     1


 AVERAGE FORCE                       0.00       TIME AVG. FORCE       1.000E-02
 ALL FORCE     RESIDUALS ARE ZERO
 ALL DISP.    INCREMENTS ARE ZERO
 ALL CORRECTION TO DISP.    ARE ZERO
          THERE IS ZERO FORCE     EVERYWHERE

 AVERAGE HEAT FLUX                  1.935E-15   TIME AVG. HEAT FLUX   1.000E-02
 LARGEST RESIDUAL HEAT FLUX         1.093E-27   AT NODE       4528   DOF 11
   INSTANCE: PART-1-1                                                                        
 LARGEST INCREMENT OF TEMP.         3.863E-02   AT NODE       5677   DOF 11
   INSTANCE: PART-1-1                                                                        
 LARGEST CORRECTION TO TEMP.       -4.073E-03   AT NODE       5713   DOF 11
   INSTANCE: PART-1-1                                                                        
          THERE IS ZERO HEAT FLUX EVERYWHERE
 

 ***WARNING: THERE IS ZERO HEAT FLUX EVERYWHERE IN THE MODEL BASED ON THE 
             DEFAULT CRITERION. PLEASE CHECK THE VALUE OF THE AVERAGE HEAT FLUX 
             DURING THE CURRENT ITERATION TO VERIFY THAT THE HEAT FLUX IS SMALL 
             ENOUGH TO BE TREATED AS ZERO. IF NOT, PLEASE USE THE SOLUTION 
             CONTROLS TO RESET THE CRITERION FOR ZERO HEAT FLUX.

 ITERATION SUMMARY FOR THE INCREMENT:   1 TOTAL ITERATIONS, OF WHICH
   0 ARE SEVERE DISCONTINUITY ITERATIONS AND  1 ARE EQUILIBRIUM ITERATIONS.

 TIME INCREMENT COMPLETED   36.0    ,  FRACTION OF STEP COMPLETED  0.190    
 STEP TIME COMPLETED       1.368E+03,  TOTAL TIME COMPLETED        1.368E+03


  INCREMENT    39 STARTS. ATTEMPT NUMBER  1, TIME INCREMENT   36.0    
 
	UNSYMMETRIC NEW DIRECT SPARSE SOLVER RUNNING ON
 	1 HOST x 1 MPI RANK PER HOST x 8 THREADS PER RANK
        NUMBER OF EQUATIONS:  5780
        NUMBER OF RHS:        1
        NUMBER OF FLOPS:      1.180e+08
        SOLVER ELAPSED TIME:  12ms

               CONVERGENCE CHECKS FOR EQUILIBRIUM ITERATION     1


 AVERAGE FORCE                       0.00       TIME AVG. FORCE       1.000E-02
 ALL FORCE     RESIDUALS ARE ZERO
 ALL DISP.    INCREMENTS ARE ZERO
 ALL CORRECTION TO DISP.    ARE ZERO
          THERE IS ZERO FORCE     EVERYWHERE

 AVERAGE HEAT FLUX                  1.741E-15   TIME AVG. HEAT FLUX   1.000E-02
 LARGEST RESIDUAL HEAT FLUX        -1.087E-27   AT NODE       5091   DOF 11
   INSTANCE: PART-1-1                                                                        
 LARGEST INCREMENT OF TEMP.         3.496E-02   AT NODE       5677   DOF 11
   INSTANCE: PART-1-1                                                                        
 LARGEST CORRECTION TO TEMP.       -3.688E-03   AT NODE       5713   DOF 11
   INSTANCE: PART-1-1                                                                        
[...]

 AVERAGE HEAT FLUX                  2.232E-22   TIME AVG. HEAT FLUX   1.000E-02
 LARGEST RESIDUAL HEAT FLUX         1.108E-27   AT NODE       3873   DOF 11
   INSTANCE: PART-1-1                                                                        
 LARGEST INCREMENT OF TEMP.         5.689E-09   AT NODE       5479   DOF 11
   INSTANCE: PART-1-1                                                                        
 LARGEST CORRECTION TO TEMP.       -6.203E-10   AT NODE       5479   DOF 11
   INSTANCE: PART-1-1                                                                        
          THERE IS ZERO HEAT FLUX EVERYWHERE
 

 ***WARNING: THERE IS ZERO HEAT FLUX EVERYWHERE IN THE MODEL BASED ON THE 
             DEFAULT CRITERION. PLEASE CHECK THE VALUE OF THE AVERAGE HEAT FLUX 
             DURING THE CURRENT ITERATION TO VERIFY THAT THE HEAT FLUX IS SMALL 
             ENOUGH TO BE TREATED AS ZERO. IF NOT, PLEASE USE THE SOLUTION 
             CONTROLS TO RESET THE CRITERION FOR ZERO HEAT FLUX.

 ITERATION SUMMARY FOR THE INCREMENT:   1 TOTAL ITERATIONS, OF WHICH
   0 ARE SEVERE DISCONTINUITY ITERATIONS AND  1 ARE EQUILIBRIUM ITERATIONS.

 TIME INCREMENT COMPLETED   36.0    ,  FRACTION OF STEP COMPLETED  0.955    
 STEP TIME COMPLETED       6.876E+03,  TOTAL TIME COMPLETED        6.876E+03


  INCREMENT   192 STARTS. ATTEMPT NUMBER  1, TIME INCREMENT   36.0    
 
	UNSYMMETRIC NEW DIRECT SPARSE SOLVER RUNNING ON
 	1 HOST x 1 MPI RANK PER HOST x 8 THREADS PER RANK
        NUMBER OF EQUATIONS:  5780
        NUMBER OF RHS:        1
        NUMBER OF FLOPS:      1.180e+08
        SOLVER ELAPSED TIME:  38ms

               CONVERGENCE CHECKS FOR EQUILIBRIUM ITERATION     1


 AVERAGE FORCE                       0.00       TIME AVG. FORCE       1.000E-02
 ALL FORCE     RESIDUALS ARE ZERO
 ALL DISP.    INCREMENTS ARE ZERO
 ALL CORRECTION TO DISP.    ARE ZERO
          THERE IS ZERO FORCE     EVERYWHERE

 AVERAGE HEAT FLUX                  2.011E-22   TIME AVG. HEAT FLUX   1.000E-02
 LARGEST RESIDUAL HEAT FLUX         1.110E-27   AT NODE       3254   DOF 11
   INSTANCE: PART-1-1                                                                        
 LARGEST INCREMENT OF TEMP.         5.129E-09   AT NODE       5479   DOF 11
   INSTANCE: PART-1-1                                                                        
 LARGEST CORRECTION TO TEMP.       -5.593E-10   AT NODE       5479   DOF 11
   INSTANCE: PART-1-1                                                                        
          THERE IS ZERO HEAT FLUX EVERYWHERE
 

 ***WARNING: THERE IS ZERO HEAT FLUX EVERYWHERE IN THE MODEL BASED ON THE 
             DEFAULT CRITERION. PLEASE CHECK THE VALUE OF THE AVERAGE HEAT FLUX 
             DURING THE CURRENT ITERATION TO VERIFY THAT THE HEAT FLUX IS SMALL 
             ENOUGH TO BE TREATED AS ZERO. IF NOT, PLEASE USE THE SOLUTION 
             CONTROLS TO RESET THE CRITERION FOR ZERO HEAT FLUX.

 ITERATION SUMMARY FOR THE INCREMENT:   1 TOTAL ITERATIONS, OF WHICH
   0 ARE SEVERE DISCONTINUITY ITERATIONS AND  1 ARE EQUILIBRIUM ITERATIONS.

 TIME INCREMENT COMPLETED   36.0    ,  FRACTION OF STEP COMPLETED  0.960    
 STEP TIME COMPLETED       6.912E+03,  TOTAL TIME COMPLETED        6.912E+03


  INCREMENT   193 STARTS. ATTEMPT NUMBER  1, TIME INCREMENT   36.0    
 
	UNSYMMETRIC NEW DIRECT SPARSE SOLVER RUNNING ON
 	1 HOST x 1 MPI RANK PER HOST x 8 THREADS PER RANK
        NUMBER OF EQUATIONS:  5780
        NUMBER OF RHS:        1
        NUMBER OF FLOPS:      1.180e+08
        SOLVER ELAPSED TIME:  37ms

               CONVERGENCE CHECKS FOR EQUILIBRIUM ITERATION     1


 AVERAGE FORCE                       0.00       TIME AVG. FORCE       1.000E-02
 ALL FORCE     RESIDUALS ARE ZERO
 ALL DISP.    INCREMENTS ARE ZERO
 ALL CORRECTION TO DISP.    ARE ZERO
          THERE IS ZERO FORCE     EVERYWHERE

 AVERAGE HEAT FLUX                  1.812E-22   TIME AVG. HEAT FLUX   1.000E-02
 LARGEST RESIDUAL HEAT FLUX         1.078E-27   AT NODE       3953   DOF 11
   INSTANCE: PART-1-1                                                                        
 LARGEST INCREMENT OF TEMP.         4.625E-09   AT NODE       5479   DOF 11
   INSTANCE: PART-1-1                                                                        
 LARGEST CORRECTION TO TEMP.       -5.043E-10   AT NODE       5479   DOF 11
   INSTANCE: PART-1-1                                                                        
          THERE IS ZERO HEAT FLUX EVERYWHERE
 

 ***WARNING: THERE IS ZERO HEAT FLUX EVERYWHERE IN THE MODEL BASED ON THE 
             DEFAULT CRITERION. PLEASE CHECK THE VALUE OF THE AVERAGE HEAT FLUX 
             DURING THE CURRENT ITERATION TO VERIFY THAT THE HEAT FLUX IS SMALL 
             ENOUGH TO BE TREATED AS ZERO. IF NOT, PLEASE USE THE SOLUTION 
             CONTROLS TO RESET THE CRITERION FOR ZERO HEAT FLUX.

 ITERATION SUMMARY FOR THE INCREMENT:   1 TOTAL ITERATIONS, OF WHICH
   0 ARE SEVERE DISCONTINUITY ITERATIONS AND  1 ARE EQUILIBRIUM ITERATIONS.

 TIME INCREMENT COMPLETED   36.0    ,  FRACTION OF STEP COMPLETED  0.965    
 STEP TIME COMPLETED       6.948E+03,  TOTAL TIME COMPLETED        6.948E+03


  INCREMENT   194 STARTS. ATTEMPT NUMBER  1, TIME INCREMENT   36.0    
 
	UNSYMMETRIC NEW DIRECT SPARSE SOLVER RUNNING ON
 	1 HOST x 1 MPI RANK PER HOST x 8 THREADS PER RANK
        NUMBER OF EQUATIONS:  5780
        NUMBER OF RHS:        1
        NUMBER OF FLOPS:      1.180e+08
        SOLVER ELAPSED TIME:  39ms

               CONVERGENCE CHECKS FOR EQUILIBRIUM ITERATION     1


 AVERAGE FORCE                       0.00       TIME AVG. FORCE       1.000E-02
 ALL FORCE     RESIDUALS ARE ZERO
 ALL DISP.    INCREMENTS ARE ZERO
 ALL CORRECTION TO DISP.    ARE ZERO
          THERE IS ZERO FORCE     EVERYWHERE

 AVERAGE HEAT FLUX                  1.633E-22   TIME AVG. HEAT FLUX   1.000E-02
 LARGEST RESIDUAL HEAT FLUX        -1.043E-27   AT NODE       1458   DOF 11
   INSTANCE: PART-1-1                                                                        
 LARGEST INCREMENT OF TEMP.         4.170E-09   AT NODE       5479   DOF 11
   INSTANCE: PART-1-1                                                                        
 LARGEST CORRECTION TO TEMP.       -4.547E-10   AT NODE       5488   DOF 11
   INSTANCE: PART-1-1                                                                        
          THERE IS ZERO HEAT FLUX EVERYWHERE
 

 ***WARNING: THERE IS ZERO HEAT FLUX EVERYWHERE IN THE MODEL BASED ON THE 
             DEFAULT CRITERION. PLEASE CHECK THE VALUE OF THE AVERAGE HEAT FLUX 
             DURING THE CURRENT ITERATION TO VERIFY THAT THE HEAT FLUX IS SMALL 
             ENOUGH TO BE TREATED AS ZERO. IF NOT, PLEASE USE THE SOLUTION 
             CONTROLS TO RESET THE CRITERION FOR ZERO HEAT FLUX.

 ITERATION SUMMARY FOR THE INCREMENT:   1 TOTAL ITERATIONS, OF WHICH
   0 ARE SEVERE DISCONTINUITY ITERATIONS AND  1 ARE EQUILIBRIUM ITERATIONS.

 TIME INCREMENT COMPLETED   36.0    ,  FRACTION OF STEP COMPLETED  0.970    
 STEP TIME COMPLETED       6.984E+03,  TOTAL TIME COMPLETED        6.984E+03


  INCREMENT   195 STARTS. ATTEMPT NUMBER  1, TIME INCREMENT   36.0    
 
	UNSYMMETRIC NEW DIRECT SPARSE SOLVER RUNNING ON
 	1 HOST x 1 MPI RANK PER HOST x 8 THREADS PER RANK
        NUMBER OF EQUATIONS:  5780
        NUMBER OF RHS:        1
        NUMBER OF FLOPS:      1.180e+08
        SOLVER ELAPSED TIME:  37ms

               CONVERGENCE CHECKS FOR EQUILIBRIUM ITERATION     1


 AVERAGE FORCE                       0.00       TIME AVG. FORCE       1.000E-02
 ALL FORCE     RESIDUALS ARE ZERO
 ALL DISP.    INCREMENTS ARE ZERO
 ALL CORRECTION TO DISP.    ARE ZERO
          THERE IS ZERO FORCE     EVERYWHERE

 AVERAGE HEAT FLUX                  1.472E-22   TIME AVG. HEAT FLUX   1.000E-02
 LARGEST RESIDUAL HEAT FLUX         1.075E-27   AT NODE       4441   DOF 11
   INSTANCE: PART-1-1                                                                        
 LARGEST INCREMENT OF TEMP.         3.760E-09   AT NODE       5479   DOF 11
   INSTANCE: PART-1-1                                                                        
 LARGEST CORRECTION TO TEMP.       -4.100E-10   AT NODE       5479   DOF 11
   INSTANCE: PART-1-1                                                                        
          THERE IS ZERO HEAT FLUX EVERYWHERE
 

 ***WARNING: THERE IS ZERO HEAT FLUX EVERYWHERE IN THE MODEL BASED ON THE 
             DEFAULT CRITERION. PLEASE CHECK THE VALUE OF THE AVERAGE HEAT FLUX 
             DURING THE CURRENT ITERATION TO VERIFY THAT THE HEAT FLUX IS SMALL 
             ENOUGH TO BE TREATED AS ZERO. IF NOT, PLEASE USE THE SOLUTION 
             CONTROLS TO RESET THE CRITERION FOR ZERO HEAT FLUX.

 ITERATION SUMMARY FOR THE INCREMENT:   1 TOTAL ITERATIONS, OF WHICH
   0 ARE SEVERE DISCONTINUITY ITERATIONS AND  1 ARE EQUILIBRIUM ITERATIONS.

 TIME INCREMENT COMPLETED   36.0    ,  FRACTION OF STEP COMPLETED  0.975    
 STEP TIME COMPLETED       7.020E+03,  TOTAL TIME COMPLETED        7.020E+03


  INCREMENT   196 STARTS. ATTEMPT NUMBER  1, TIME INCREMENT   36.0    
 
	UNSYMMETRIC NEW DIRECT SPARSE SOLVER RUNNING ON
 	1 HOST x 1 MPI RANK PER HOST x 8 THREADS PER RANK
        NUMBER OF EQUATIONS:  5780
        NUMBER OF RHS:        1
        NUMBER OF FLOPS:      1.180e+08
        SOLVER ELAPSED TIME:  38ms

               CONVERGENCE CHECKS FOR EQUILIBRIUM ITERATION     1


 AVERAGE FORCE                       0.00       TIME AVG. FORCE       1.000E-02
 ALL FORCE     RESIDUALS ARE ZERO
 ALL DISP.    INCREMENTS ARE ZERO
 ALL CORRECTION TO DISP.    ARE ZERO
          THERE IS ZERO FORCE     EVERYWHERE

 AVERAGE HEAT FLUX                  1.326E-22   TIME AVG. HEAT FLUX   1.000E-02
 LARGEST RESIDUAL HEAT FLUX        -1.106E-27   AT NODE       5165   DOF 11
   INSTANCE: PART-1-1                                                                        
 LARGEST INCREMENT OF TEMP.         3.391E-09   AT NODE       5479   DOF 11
   INSTANCE: PART-1-1                                                                        
 LARGEST CORRECTION TO TEMP.       -3.697E-10   AT NODE       5479   DOF 11
   INSTANCE: PART-1-1                                                                        
          THERE IS ZERO HEAT FLUX EVERYWHERE
 

 ***WARNING: THERE IS ZERO HEAT FLUX EVERYWHERE IN THE MODEL BASED ON THE 
             DEFAULT CRITERION. PLEASE CHECK THE VALUE OF THE AVERAGE HEAT FLUX 
             DURING THE CURRENT ITERATION TO VERIFY THAT THE HEAT FLUX IS SMALL 
             ENOUGH TO BE TREATED AS ZERO. IF NOT, PLEASE USE THE SOLUTION 
             CONTROLS TO RESET THE CRITERION FOR ZERO HEAT FLUX.

 ITERATION SUMMARY FOR THE INCREMENT:   1 TOTAL ITERATIONS, OF WHICH
   0 ARE SEVERE DISCONTINUITY ITERATIONS AND  1 ARE EQUILIBRIUM ITERATIONS.

 TIME INCREMENT COMPLETED   36.0    ,  FRACTION OF STEP COMPLETED  0.980    
 STEP TIME COMPLETED       7.056E+03,  TOTAL TIME COMPLETED        7.056E+03


  INCREMENT   197 STARTS. ATTEMPT NUMBER  1, TIME INCREMENT   36.0    
 
	UNSYMMETRIC NEW DIRECT SPARSE SOLVER RUNNING ON
 	1 HOST x 1 MPI RANK PER HOST x 8 THREADS PER RANK
        NUMBER OF EQUATIONS:  5780
        NUMBER OF RHS:        1
        NUMBER OF FLOPS:      1.180e+08
        SOLVER ELAPSED TIME:  38ms

               CONVERGENCE CHECKS FOR EQUILIBRIUM ITERATION     1


 AVERAGE FORCE                       0.00       TIME AVG. FORCE       1.000E-02
 ALL FORCE     RESIDUALS ARE ZERO
 ALL DISP.    INCREMENTS ARE ZERO
 ALL CORRECTION TO DISP.    ARE ZERO
          THERE IS ZERO FORCE     EVERYWHERE

 AVERAGE HEAT FLUX                  1.195E-22   TIME AVG. HEAT FLUX   1.000E-02
 LARGEST RESIDUAL HEAT FLUX        -1.064E-27   AT NODE       5554   DOF 11
   INSTANCE: PART-1-1                                                                        
 LARGEST INCREMENT OF TEMP.         3.057E-09   AT NODE       5479   DOF 11
   INSTANCE: PART-1-1                                                                        
 LARGEST CORRECTION TO TEMP.       -3.334E-10   AT NODE       5479   DOF 11
   INSTANCE: PART-1-1                                                                        
          THERE IS ZERO HEAT FLUX EVERYWHERE
 

 ***WARNING: THERE IS ZERO HEAT FLUX EVERYWHERE IN THE MODEL BASED ON THE 
             DEFAULT CRITERION. PLEASE CHECK THE VALUE OF THE AVERAGE HEAT FLUX 
             DURING THE CURRENT ITERATION TO VERIFY THAT THE HEAT FLUX IS SMALL 
             ENOUGH TO BE TREATED AS ZERO. IF NOT, PLEASE USE THE SOLUTION 
             CONTROLS TO RESET THE CRITERION FOR ZERO HEAT FLUX.

 ITERATION SUMMARY FOR THE INCREMENT:   1 TOTAL ITERATIONS, OF WHICH
   0 ARE SEVERE DISCONTINUITY ITERATIONS AND  1 ARE EQUILIBRIUM ITERATIONS.

 TIME INCREMENT COMPLETED   36.0    ,  FRACTION OF STEP COMPLETED  0.985    
 STEP TIME COMPLETED       7.092E+03,  TOTAL TIME COMPLETED        7.092E+03


  INCREMENT   198 STARTS. ATTEMPT NUMBER  1, TIME INCREMENT   36.0    
 
	UNSYMMETRIC NEW DIRECT SPARSE SOLVER RUNNING ON
 	1 HOST x 1 MPI RANK PER HOST x 8 THREADS PER RANK
        NUMBER OF EQUATIONS:  5780
        NUMBER OF RHS:        1
        NUMBER OF FLOPS:      1.180e+08
        SOLVER ELAPSED TIME:  37ms

               CONVERGENCE CHECKS FOR EQUILIBRIUM ITERATION     1


 AVERAGE FORCE                       0.00       TIME AVG. FORCE       1.000E-02
 ALL FORCE     RESIDUALS ARE ZERO
 ALL DISP.    INCREMENTS ARE ZERO
 ALL CORRECTION TO DISP.    ARE ZERO
          THERE IS ZERO FORCE     EVERYWHERE

 AVERAGE HEAT FLUX                  1.077E-22   TIME AVG. HEAT FLUX   1.000E-02
 LARGEST RESIDUAL HEAT FLUX        -1.070E-27   AT NODE       1445   DOF 11
   INSTANCE: PART-1-1                                                                        
 LARGEST INCREMENT OF TEMP.         2.757E-09   AT NODE       5479   DOF 11
   INSTANCE: PART-1-1                                                                        
 LARGEST CORRECTION TO TEMP.       -3.006E-10   AT NODE       5479   DOF 11
   INSTANCE: PART-1-1                                                                        
          THERE IS ZERO HEAT FLUX EVERYWHERE
 

 ***WARNING: THERE IS ZERO HEAT FLUX EVERYWHERE IN THE MODEL BASED ON THE 
             DEFAULT CRITERION. PLEASE CHECK THE VALUE OF THE AVERAGE HEAT FLUX 
             DURING THE CURRENT ITERATION TO VERIFY THAT THE HEAT FLUX IS SMALL 
             ENOUGH TO BE TREATED AS ZERO. IF NOT, PLEASE USE THE SOLUTION 
             CONTROLS TO RESET THE CRITERION FOR ZERO HEAT FLUX.

 ITERATION SUMMARY FOR THE INCREMENT:   1 TOTAL ITERATIONS, OF WHICH
   0 ARE SEVERE DISCONTINUITY ITERATIONS AND  1 ARE EQUILIBRIUM ITERATIONS.

 TIME INCREMENT COMPLETED   36.0    ,  FRACTION OF STEP COMPLETED  0.990    
 STEP TIME COMPLETED       7.128E+03,  TOTAL TIME COMPLETED        7.128E+03


  INCREMENT   199 STARTS. ATTEMPT NUMBER  1, TIME INCREMENT   36.0    
 
	UNSYMMETRIC NEW DIRECT SPARSE SOLVER RUNNING ON
 	1 HOST x 1 MPI RANK PER HOST x 8 THREADS PER RANK
        NUMBER OF EQUATIONS:  5780
        NUMBER OF RHS:        1
        NUMBER OF FLOPS:      1.180e+08
        SOLVER ELAPSED TIME:  37ms

               CONVERGENCE CHECKS FOR EQUILIBRIUM ITERATION     1


 AVERAGE FORCE                       0.00       TIME AVG. FORCE       1.000E-02
 ALL FORCE     RESIDUALS ARE ZERO
 ALL DISP.    INCREMENTS ARE ZERO
 ALL CORRECTION TO DISP.    ARE ZERO
          THERE IS ZERO FORCE     EVERYWHERE

 AVERAGE HEAT FLUX                  9.704E-23   TIME AVG. HEAT FLUX   1.000E-02
 LARGEST RESIDUAL HEAT FLUX         1.052E-27   AT NODE       4701   DOF 11
   INSTANCE: PART-1-1                                                                        
 LARGEST INCREMENT OF TEMP.         2.486E-09   AT NODE       5479   DOF 11
   INSTANCE: PART-1-1                                                                        
 LARGEST CORRECTION TO TEMP.       -2.710E-10   AT NODE       5479   DOF 11
   INSTANCE: PART-1-1                                                                        
          THERE IS ZERO HEAT FLUX EVERYWHERE
 

 ***WARNING: THERE IS ZERO HEAT FLUX EVERYWHERE IN THE MODEL BASED ON THE 
             DEFAULT CRITERION. PLEASE CHECK THE VALUE OF THE AVERAGE HEAT FLUX 
             DURING THE CURRENT ITERATION TO VERIFY THAT THE HEAT FLUX IS SMALL 
             ENOUGH TO BE TREATED AS ZERO. IF NOT, PLEASE USE THE SOLUTION 
             CONTROLS TO RESET THE CRITERION FOR ZERO HEAT FLUX.

 ITERATION SUMMARY FOR THE INCREMENT:   1 TOTAL ITERATIONS, OF WHICH
   0 ARE SEVERE DISCONTINUITY ITERATIONS AND  1 ARE EQUILIBRIUM ITERATIONS.

 TIME INCREMENT COMPLETED   36.0    ,  FRACTION OF STEP COMPLETED  0.995    
 STEP TIME COMPLETED       7.164E+03,  TOTAL TIME COMPLETED        7.164E+03


  INCREMENT   200 STARTS. ATTEMPT NUMBER  1, TIME INCREMENT   36.0    
 
	UNSYMMETRIC NEW DIRECT SPARSE SOLVER RUNNING ON
 	1 HOST x 1 MPI RANK PER HOST x 8 THREADS PER RANK
        NUMBER OF EQUATIONS:  5780
        NUMBER OF RHS:        1
        NUMBER OF FLOPS:      1.180e+08
        SOLVER ELAPSED TIME:  37ms

               CONVERGENCE CHECKS FOR EQUILIBRIUM ITERATION     1


 AVERAGE FORCE                       0.00       TIME AVG. FORCE       1.000E-02
 ALL FORCE     RESIDUALS ARE ZERO
 ALL DISP.    INCREMENTS ARE ZERO
 ALL CORRECTION TO DISP.    ARE ZERO
          THERE IS ZERO FORCE     EVERYWHERE

 AVERAGE HEAT FLUX                  8.744E-23   TIME AVG. HEAT FLUX   1.000E-02
 LARGEST RESIDUAL HEAT FLUX        -1.083E-27   AT NODE       5013   DOF 11
   INSTANCE: PART-1-1                                                                        
 LARGEST INCREMENT OF TEMP.         2.241E-09   AT NODE       5479   DOF 11
   INSTANCE: PART-1-1                                                                        
 LARGEST CORRECTION TO TEMP.       -2.444E-10   AT NODE       5479   DOF 11
   INSTANCE: PART-1-1                                                                        
          THERE IS ZERO HEAT FLUX EVERYWHERE
 

 ***WARNING: THERE IS ZERO HEAT FLUX EVERYWHERE IN THE MODEL BASED ON THE 
             DEFAULT CRITERION. PLEASE CHECK THE VALUE OF THE AVERAGE HEAT FLUX 
             DURING THE CURRENT ITERATION TO VERIFY THAT THE HEAT FLUX IS SMALL 
             ENOUGH TO BE TREATED AS ZERO. IF NOT, PLEASE USE THE SOLUTION 
             CONTROLS TO RESET THE CRITERION FOR ZERO HEAT FLUX.

 ITERATION SUMMARY FOR THE INCREMENT:   1 TOTAL ITERATIONS, OF WHICH
   0 ARE SEVERE DISCONTINUITY ITERATIONS AND  1 ARE EQUILIBRIUM ITERATIONS.

 TIME INCREMENT COMPLETED   36.0    ,  FRACTION OF STEP COMPLETED   1.00    
 STEP TIME COMPLETED       7.200E+03,  TOTAL TIME COMPLETED        7.200E+03


          THE ANALYSIS HAS BEEN COMPLETED



     ANALYSIS SUMMARY:
     TOTAL OF        200  INCREMENTS
                       0  CUTBACKS IN AUTOMATIC INCREMENTATION
                     200  ITERATIONS INCLUDING CONTACT ITERATIONS IF PRESENT
                     200  PASSES THROUGH THE EQUATION SOLVER OF WHICH 
                     200  INVOLVE MATRIX DECOMPOSITION, INCLUDING
                       0  DECOMPOSITION(S) OF THE MASS MATRIX
                       1  REORDERING OF EQUATIONS TO MINIMIZE WAVEFRONT
                       0  ADDITIONAL RESIDUAL EVALUATIONS FOR LINE SEARCHES
                       0  ADDITIONAL OPERATOR EVALUATIONS FOR LINE SEARCHES
                       1  WARNING MESSAGES DURING USER INPUT PROCESSING
                     200  WARNING MESSAGES DURING ANALYSIS
                       0  ANALYSIS WARNINGS ARE NUMERICAL PROBLEM MESSAGES
                       0  ANALYSIS WARNINGS ARE NEGATIVE EIGENVALUE MESSAGES
                       0  ERROR MESSAGES



     JOB TIME SUMMARY
       USER TIME (SEC)      =     2.43E+02
       SYSTEM TIME (SEC)    =      11.    
       TOTAL CPU TIME (SEC) =     2.54E+02
       WALLCLOCK TIME (SEC) =           54
       MEMORY PEAK (GB)     =            0
