*Heading
** Job name: cavity Model name: Model-1
*Preprint, echo=NO, model=NO, history=NO, contact=NO
**
** PARTS
**
*Part, name=Part-3
*End Part
**
** ASSEMBLY
**
*Assembly, name=Assembly
**  
*Instance, name=Part-3-1, part=Part-3
*Node
      1,          10.,           0.,          20.
      2,          10.,           0.,          10.
      3,          10.,          10.,          10.
      4,          10.,          10.,          20.
      5,           5.,           0.,          10.
      6,           0.,           0.,          15.
      7,           0.,           0.,          20.
      8,           0.,           5.,          10.
      9,           0.,          10.,          10.
     10,           0.,          10.,          20.
     11,           0.,          10.,           0.
     12,          10.,          10.,           0.
     13,           0.,           0.,           5.
     14,           0.,           0.,           0.
     15,          10.,           0.,           0.
     16,           0.,          -5.,          10.
     17,           0.,         -10.,          10.
     18,           0.,         -10.,           0.
     19,          10.,         -10.,           0.
     20,          10.,         -10.,          10.
** ... 1740 like lines cut
*Element, type=C3D8
  1,  351,  352, 1172, 1169,   33,   34,  322,  321
  2,  352,  353, 1171, 1172,   34,   35,  323,  322
  3,  353,  354, 1170, 1171,   35,   36,  324,  323
  4,  354,   44,  337, 1170,   36,    1,   37,  324
  5,  337,  338, 1180, 1170,   37,   38,  325,  324
  6,  338,  339, 1181, 1180,   38,   39,  326,  325
  7,  339,  340, 1182, 1181,   39,   40,  327,  326
  8,  340,   50,  367, 1182,   40,    2,   45,  327
  9, 1170, 1180, 1183, 1171,  324,  325,  328,  323
 10, 1180, 1181, 1184, 1183,  325,  326,  329,  328
 11, 1181, 1182, 1185, 1184,  326,  327,  330,  329
 12, 1182,  367,  368, 1185,  327,   45,   46,  330
 13, 1171, 1183, 1186, 1172,  323,  328,  331,  322
 14, 1183, 1184, 1187, 1186,  328,  329,  332,  331
 15, 1184, 1185, 1188, 1187,  329,  330,  333,  332
 16, 1185,  368,  369, 1188,  330,   46,   47,  333
 17, 1172, 1186, 1175, 1169,  322,  331,  334,  321
 18, 1186, 1187, 1174, 1175,  331,  332,  335,  334
 19, 1187, 1188, 1173, 1174,  332,  333,  336,  335
 20, 1188,  369,  370, 1173,  333,   47,   48,  336
** ... 1236 like lines cut
** Region: (Section-1:Picked)
*Elset, elset=_PickedSet2, internal, generate
    1,  1256,     1
** Section: Section-1
*Solid Section, elset=_PickedSet2, material=Material-1
1.,
*End Instance
*Nset, nset=front, instance=Part-3-1
    1,    2,    3,    4,    5,    6,    7,    8,    9,   10,   16,   17,   20,   21,   22,   23
   24,   25,   26,   27,   31,   32,   33,   34,   35,   36,   37,   38,   39,   40,   41,   42
   43,   44,   45,   46,   47,   48,   49,   50,   51,   52,   53,   54,   55,   56,   57,   58
   59,   60,   61,   62,   63,   64,   65,   66,   67,   68,   69,   70,   71,   72,   73,   74
   75,   76,   77,   78,   79,   80,   81,   82,   83,   84,   85,   86,   87,   88,   89,   90
   91,   92,   93,   94,   95,  147,  148,  149,  150,  151,  152,  153,  154,  155,  160,  161
  162,  163,  180,  181,  182,  183,  184,  185,  186,  187,  188,  189,  190,  191,  192,  193
  194,  195,  196,  197,  198,  199,  200,  201,  202,  203,  204,  205,  206,  207,  208,  209
  210,  211,  212,  213,  214,  215,  216,  217,  218,  219,  220,  221,  222,  223,  224,  225
  226,  227,  228,  229,  230,  231,  232,  233,  234,  235,  236,  237,  238,  239,  240,  241
  242,  243,  244,  245,  246,  247,  248,  249,  250,  251,  252,  253,  254,  282,  283,  284
  285,  298,  299,  300,  301,  302,  303,  304,  305,  306,  307,  308,  309,  310,  311,  312
  313,  314,  315,  316,  317,  318,  319,  320,  321,  322,  323,  324,  325,  326,  327,  328
  329,  330,  331,  332,  333,  334,  335,  336,  337,  338,  339,  340,  341,  342,  343,  344
  345,  346,  347,  348,  349,  350,  351,  352,  353,  354,  355,  356,  357,  358,  359,  360
  361,  362,  363,  364,  365,  366,  367,  368,  369,  370,  371,  372,  373,  374,  375,  376
  377,  378,  379,  380,  381,  382,  383,  384,  385,  386,  387,  388,  389,  390,  391,  392
  393,  394,  395,  396,  397,  398,  399,  400,  401,  402,  403,  404,  405,  406,  407,  408
  409,  410,  411,  412,  413,  414,  415,  416,  417,  418,  419,  420,  421,  422,  423,  424
  425,  426,  427,  428,  429,  430,  431,  432,  433,  434,  435,  436,  437,  438,  439,  440
** ... 40 like lines cut
*Elset, elset=front, instance=Part-3-1
    1,    2,    3,    4,    5,    6,    7,    8,    9,   10,   11,   12,   13,   14,   15,   16
   17,   18,   19,   20,   21,   22,   23,   24,   25,   26,   27,   28,   29,   30,   31,   32
   33,   34,   35,   36,   37,   38,   39,   40,   41,   42,   43,   44,   45,   46,   47,   48
   49,   50,   51,   52,   53,   54,   55,   56,   57,   58,   59,   60,   61,   62,   63,   64
   65,   66,   67,   68,   69,   70,   71,   72,   73,   74,   75,   76,   77,   78,   79,   80
   81,   82,   83,   84,   85,   86,   87,   88,   89,   90,   91,   92,   93,   94,   95,   96
   97,   98,   99,  100,  101,  102,  103,  104,  105,  106,  107,  108,  109,  110,  111,  112
  113,  114,  115,  116,  117,  118,  119,  120,  121,  122,  123,  124,  125,  126,  127,  128
  129,  130,  131,  132,  133,  134,  135,  136,  137,  138,  139,  140,  141,  142,  143,  144
  145,  146,  147,  148,  149,  150,  151,  152,  153,  154,  155,  156,  157,  472,  473,  474
  475,  476,  477,  478,  479,  480,  481,  482,  483,  484,  485,  486,  487,  488,  489,  490
  491,  492,  493,  494,  495,  496,  497,  498,  499,  500,  501,  502,  503,  504,  505,  506
  507,  508,  509,  510,  511,  512,  513,  514,  515,  516,  517,  518,  519,  520,  521,  522
  523,  524,  525,  526,  527,  528,  529,  530,  531,  532,  533,  534,  535,  536,  537,  538
  539,  540,  541,  542,  543,  544,  545,  546,  547,  548,  549,  550,  551,  552,  553,  554
  555,  556,  557,  558,  559,  560,  561,  562,  563,  564,  565,  566,  567,  568,  569,  570
  571,  572,  573,  574,  575,  576,  577,  578,  579,  580,  581,  582,  583,  584,  585,  586
  587,  588,  589,  590,  591,  592,  593,  594,  595,  596,  597,  598,  599,  600,  601,  602
  603,  604,  605,  606,  607,  608,  609,  610,  611,  612,  613,  614,  615,  616,  617,  618
  619,  620,  621,  622,  623,  624,  625,  626,  627,  628,  629,  630,  631,  632,  633,  634
** ... 20 like lines cut
*Nset, nset=back, instance=Part-3-1
    2,    3,    5,    8,    9,   11,   12,   13,   14,   15,   16,   17,   18,   19,   20,   23
   24,   25,   28,   29,   30,   31,   45,   46,   47,   48,   49,   50,   55,   56,   57,   58
   70,   71,   72,   73,   74,   75,   76,   90,   91,   96,   97,   98,   99,  100,  101,  102
  103,  104,  105,  106,  107,  108,  109,  110,  111,  112,  113,  114,  115,  116,  117,  118
  119,  120,  121,  122,  123,  124,  125,  126,  127,  128,  129,  130,  131,  132,  133,  134
  135,  136,  137,  138,  139,  140,  141,  142,  143,  144,  145,  146,  147,  148,  149,  150
  151,  152,  153,  154,  155,  156,  157,  158,  159,  160,  161,  162,  163,  164,  165,  166
  167,  168,  169,  170,  171,  172,  173,  174,  175,  176,  177,  178,  179,  180,  181,  182
  183,  218,  219,  220,  221,  222,  223,  224,  225,  226,  235,  236,  237,  238,  239,  240
  241,  242,  255,  256,  257,  258,  259,  260,  261,  262,  263,  264,  265,  266,  267,  268
  269,  270,  271,  272,  273,  274,  275,  276,  277,  278,  279,  280,  281,  282,  283,  284
  285,  286,  287,  288,  289,  290,  291,  292,  293,  294,  295,  296,  297,  298,  299,  300
  301,  302,  303,  304,  305,  306,  307,  308,  367,  368,  369,  370,  371,  372,  373,  374
  375,  376,  377,  378,  379,  380,  448,  449,  450,  451,  452,  453,  454,  455,  456,  457
  458,  459,  460,  461,  462,  463,  464,  465,  466,  467,  468,  469,  470,  471,  472,  473
  474,  475,  476,  477,  478,  479,  480,  481,  482,  483,  484,  485,  486,  487,  488,  489
  490,  491,  492,  493,  494,  495,  496,  497,  498,  499,  500,  501,  502,  503,  504,  505
  506,  507,  508,  509,  510,  511,  512,  513,  514,  515,  516,  517,  518,  519,  520,  521
  522,  523,  524,  525,  526,  527,  528,  529,  530,  531,  532,  533,  534,  535,  536,  537
  538,  539,  540,  541,  542,  543,  544,  545,  546,  547,  548,  549,  550,  551,  552,  553
** ... 40 like lines cut
*Elset, elset=back, instance=Part-3-1
  158,  159,  160,  161,  162,  163,  164,  165,  166,  167,  168,  169,  170,  171,  172,  173
  174,  175,  176,  177,  178,  179,  180,  181,  182,  183,  184,  185,  186,  187,  188,  189
  190,  191,  192,  193,  194,  195,  196,  197,  198,  199,  200,  201,  202,  203,  204,  205
  206,  207,  208,  209,  210,  211,  212,  213,  214,  215,  216,  217,  218,  219,  220,  221
  222,  223,  224,  225,  226,  227,  228,  229,  230,  231,  232,  233,  234,  235,  236,  237
  238,  239,  240,  241,  242,  243,  244,  245,  246,  247,  248,  249,  250,  251,  252,  253
  254,  255,  256,  257,  258,  259,  260,  261,  262,  263,  264,  265,  266,  267,  268,  269
  270,  271,  272,  273,  274,  275,  276,  277,  278,  279,  280,  281,  282,  283,  284,  285
  286,  287,  288,  289,  290,  291,  292,  293,  294,  295,  296,  297,  298,  299,  300,  301
  302,  303,  304,  305,  306,  307,  308,  309,  310,  311,  312,  313,  314,  315,  316,  317
  318,  319,  320,  321,  322,  323,  324,  325,  326,  327,  328,  329,  330,  331,  332,  333
  334,  335,  336,  337,  338,  339,  340,  341,  342,  343,  344,  345,  346,  347,  348,  349
  350,  351,  352,  353,  354,  355,  356,  357,  358,  359,  360,  361,  362,  363,  364,  365
  366,  367,  368,  369,  370,  371,  372,  373,  374,  375,  376,  377,  378,  379,  380,  381
  382,  383,  384,  385,  386,  387,  388,  389,  390,  391,  392,  393,  394,  395,  396,  397
  398,  399,  400,  401,  402,  403,  404,  405,  406,  407,  408,  409,  410,  411,  412,  413
  414,  415,  416,  417,  418,  419,  420,  421,  422,  423,  424,  425,  426,  427,  428,  429
  430,  431,  432,  433,  434,  435,  436,  437,  438,  439,  440,  441,  442,  443,  444,  445
  446,  447,  448,  449,  450,  451,  452,  453,  454,  455,  456,  457,  458,  459,  460,  461
  462,  463,  464,  465,  466,  467,  468,  469,  470,  471,  786,  787,  788,  789,  790,  791
** ... 20 like lines cut
*Nset, nset=_PickedSet12, internal, instance=Part-3-1
  17,  18,  19,  20,  21,  22,  25,  27,  28, 156, 157, 158, 159, 160, 161, 162
 163, 168, 169, 170, 171, 172, 173, 174, 175, 195, 196, 197, 198, 199, 200, 201
 202, 203, 204, 205, 206, 231, 232, 233, 234, 235, 236, 237, 238, 247, 248, 249
 250, 262, 263, 264, 265, 270, 271, 272, 273, 626, 627, 628, 629, 630, 631, 632
 633, 634, 635, 636, 637, 638, 639, 640, 641, 741, 742, 743, 744, 745, 746, 747
 748, 749, 750, 751, 752, 753, 754, 755, 756, 854, 855, 856, 857, 858, 859, 860
 861, 862, 863, 864, 865, 866, 867, 868, 869, 937, 938, 939, 940, 941, 942, 943
 944, 945, 946, 947, 948, 949, 950, 951, 952
*Elset, elset=_PickedSet12, internal, instance=Part-3-1
 411, 412, 413, 414, 415, 416, 417, 418, 419, 420, 421, 422, 423, 424, 425, 426
 427, 428, 429, 430, 447, 448, 449, 450, 451, 584, 585, 586, 587, 588, 589, 590
 591, 592, 593, 594, 595, 596, 597, 598, 599, 600, 601, 602, 603, 604, 605, 606
 607, 624, 741, 742, 743, 744, 745, 746, 747, 748, 749, 750, 751, 752, 753, 754
 755, 756, 757, 758, 759, 760, 777, 778, 779, 780, 785, 882, 883, 884, 885, 886
 887, 888, 889, 890, 891, 892, 893, 894, 895, 896, 897, 898, 899, 900, 901, 918
 919, 920, 921, 922
*Nset, nset=_PickedSet13, internal, instance=Part-3-1
    3,    4,    9,   10,   11,   12,   30,   31,   32,   51,   52,   53,   54,   55,   56,   57
   58,   59,   60,   61,   62,   92,   93,   94,   95,   96,   97,   98,   99,  100,  101,  102
  103,  108,  109,  110,  111,  282,  283,  284,  285,  286,  287,  288,  289,  290,  291,  292
  293,  313,  314,  315,  316,  317,  318,  319,  320,  381,  382,  383,  384,  385,  386,  387
  388,  389,  390,  391,  392,  393,  394,  395,  396,  448,  449,  450,  451,  452,  453,  454
  455,  456,  457,  458,  459,  460,  461,  462,  463,  985,  986,  987,  988,  989,  990,  991
  992,  993,  994,  995,  996,  997,  998,  999, 1000, 1116, 1117, 1118, 1119, 1120, 1121, 1122
 1123, 1124, 1125, 1126, 1127, 1128, 1129, 1130, 1131
*Elset, elset=_PickedSet13, internal, instance=Part-3-1
   21,   22,   23,   24,   25,  138,  139,  140,  141,  142,  143,  144,  145,  146,  147,  148
  149,  150,  151,  152,  153,  154,  155,  156,  157,  158,  159,  160,  161,  162,  163,  164
  165,  166,  167,  168,  169,  170,  171,  172,  173,  174,  175,  176,  177,  178,  179,  180
  181,  182,  943,  944,  945,  946,  947,  948,  949,  950,  951,  952,  953,  954,  955,  956
  957,  958,  959,  960,  961,  962,  963,  964,  965,  966,  967, 1120, 1121, 1122, 1123, 1124
 1237, 1238, 1239, 1240, 1241, 1242, 1243, 1244, 1245, 1246, 1247, 1248, 1249, 1250, 1251, 1252
 1253, 1254, 1255, 1256
*Nset, nset=all, instance=Part-3-1, generate
    1,  1760,     1
*Elset, elset=all, instance=Part-3-1, generate
    1,  1256,     1
*Nset, nset="cavity face", instance=Part-3-1
    5,    6,    8,   13,   16,   23,   63,   64,   65,   66,   67,   68,   69,   70,   71,   72
   73,   74,   75,   76,   79,   80,   81,   82,   83,   84,   85,  116,  117,  118,  119,  120
  121,  122,  125,  126,  127,  128,  129,  130,  131,  140,  141,  142,  143,  144,  145,  146
  147,  148,  149,  150,  151,  152,  153,  184,  185,  186,  187,  188,  189,  190,  211,  212
  213,  214,  215,  216,  217,  218,  219,  220,  221,  222,  223,  224,  255,  256,  257,  258
  259,  260,  261,  302,  303,  304,  305,  306,  307,  308,  397,  398,  399,  400,  401,  402
  403,  404,  405,  406,  407,  408,  409,  410,  411,  412,  413,  414,  415,  416,  417,  418
  419,  420,  421,  422,  423,  424,  425,  426,  427,  428,  429,  430,  431,  432,  433,  510
  511,  512,  513,  514,  515,  516,  517,  518,  519,  520,  521,  522,  523,  524,  525,  526
  527,  528,  529,  530,  531,  532,  533,  534,  535,  536,  537,  538,  539,  540,  541,  542
  543,  544,  545,  546,  561,  562,  563,  564,  565,  566,  567,  568,  569,  570,  571,  572
  573,  574,  575,  576,  577,  578,  579,  580,  581,  582,  583,  584,  585,  586,  587,  588
  589,  590,  591,  592,  593,  594,  595,  596,  597,  674,  675,  676,  677,  678,  679,  680
  681,  682,  683,  684,  685,  686,  687,  688,  689,  690,  691,  692,  693,  694,  695,  696
  697,  698,  699,  700,  701,  702,  703,  704,  705,  706,  707,  708,  709,  710,  773,  774
  775,  776,  777,  778,  779,  780,  781,  782,  783,  784,  785,  786,  787,  788,  789,  790
  791,  792,  793,  794,  795,  796,  797,  798,  799,  800,  801,  802,  803,  804,  805,  806
  807,  808,  809,  886,  887,  888,  889,  890,  891,  892,  893,  894,  895,  896,  897,  898
  899,  900,  901,  902,  903,  904,  905,  906,  907,  908,  909,  910,  911,  912,  913,  914
  915,  916,  917,  918,  919,  920,  921,  922, 1047, 1048, 1049, 1050, 1051, 1052, 1053, 1054
** ... 5 like lines cut
*nset,nset=QA_TEST_CAVITY_FACE
"cavity face"
*Elset, elset="cavity face", instance=Part-3-1
   26,   27,   28,   29,   34,   35,   36,   37,   42,   43,   44,   45,   50,   51,   52,   53
   59,   61,   63,   65,   67,   69,   71,   73,   75,   77,   79,   81,   83,   85,   87,   89
  107,  109,  111,  113,  115,  117,  119,  121,  123,  125,  127,  129,  131,  133,  135,  137
  183,  184,  185,  186,  191,  192,  193,  194,  199,  200,  201,  202,  207,  208,  209,  210
  216,  218,  220,  222,  224,  226,  228,  230,  232,  234,  236,  238,  240,  242,  244,  246
  263,  264,  265,  266,  271,  272,  273,  274,  279,  280,  281,  282,  287,  288,  289,  290
  315,  316,  317,  318,  319,  320,  321,  322,  323,  324,  325,  326,  327,  328,  329,  330
  347,  348,  349,  350,  351,  352,  353,  354,  355,  356,  357,  358,  359,  360,  361,  362
  379,  380,  381,  382,  383,  384,  385,  386,  387,  388,  389,  390,  391,  392,  393,  394
  472,  473,  474,  475,  476,  477,  478,  479,  480,  481,  482,  483,  484,  485,  486,  487
  504,  505,  506,  507,  508,  509,  510,  511,  512,  513,  514,  515,  516,  517,  518,  519
  536,  537,  538,  539,  540,  541,  542,  543,  544,  545,  546,  547,  548,  549,  550,  551
  629,  630,  631,  632,  633,  634,  635,  636,  637,  638,  639,  640,  641,  642,  643,  644
  661,  662,  663,  664,  665,  666,  667,  668,  669,  670,  671,  672,  673,  674,  675,  676
  693,  694,  695,  696,  697,  698,  699,  700,  701,  702,  703,  704,  705,  706,  707,  708
  786,  787,  788,  789,  790,  791,  792,  793,  794,  795,  796,  797,  798,  799,  800,  801
  818,  819,  820,  821,  822,  823,  824,  825,  826,  827,  828,  829,  830,  831,  832,  833
  850,  851,  852,  853,  854,  855,  856,  857,  858,  859,  860,  861,  862,  863,  864,  865
  969,  971,  973,  975,  977,  979,  981,  983,  985,  987,  989,  991,  993,  995,  997,  999
 1000, 1001, 1002, 1003, 1008, 1009, 1010, 1011, 1016, 1017, 1018, 1019, 1024, 1025, 1026, 1027
** ... 4 like lines cut
*End Assembly
** 
** MATERIALS
** 
*Material, name=Material-1
*Elastic
1000., 0.3
*Plastic
 100.,0.
1000.,1.
** ----------------------------------------------------------------
** 
** STEP: Step-1
** 
*Step, name=Step-1, nlgeom=YES
*Static
0.1, 1., 1e-05, 0.2
** 
** BOUNDARY CONDITIONS
** 
** Name: BC-1 Type: Symmetry/Antisymmetry/Encastre
*Boundary
_PickedSet12, ENCASTRE
** Name: BC-2 Type: Displacement/Rotation
*Boundary
_PickedSet13, 2, 2, -5.
*Output, field
*Output, history
** 
*End Step
** ----------------------------------------------------------------
** 
** STEP: Step-2
** 
*Step, name=Step-2, nlgeom=YES
*Static
1., 1., 1e-05, 1.
** 
** BOUNDARY CONDITIONS
** 
** Name: BC-1 Type: Symmetry/Antisymmetry/Encastre
*Boundary, op=NEW
_PickedSet12, ENCASTRE
** Name: BC-2 Type: Displacement/Rotation
*Boundary, op=NEW
*Output, field
*Output, history
** 
*End Step
** ----------------------------------------------------------------
** 
** STEP: Step-3
** 
*Step, name=Step-3, nlgeom=YES
*Static
0.05, 1., 1e-05, 0.05
** 
** OUTPUT REQUESTS
** 
** FIELD OUTPUT: F-Output-1
** 
*Output, field
*element output
PEEQ,
*node output
U,
*node output,nset=QA_TEST_CAVITY_FACE
U,
** 
*adaptive mesh,elset=all,freq=1,mesh sweep=2
*adaptive mesh constraint,type=velocity,user
"cavity face",1,,10.
*End Step
