 Abaqus/Standard 2023.HF4                  DATE 14-Feb-2025 TIME 17:21:25
 SUMMARY OF JOB INFORMATION:
 STEP  INC ATT SEVERE EQUIL TOTAL  TOTAL      STEP       INC OF       DOF    IF
               DISCON ITERS ITERS  TIME/    TIME/LPF    TIME/LPF    MONITOR RIKS
               ITERS               FREQ
   1     1   1     0     2     2  5.00e+06   5.00e+06   5.000e+06 
   1     2   1     0     2     2  1.00e+07   1.00e+07   5.000e+06 
   1     3   1     0     1     1  1.50e+07   1.50e+07   5.000e+06 
   1     4   1     0     1     1  2.50e+07   2.50e+07   1.000e+07 
   1     5   1     0     1     1  3.50e+07   3.50e+07   1.000e+07 
   1     6   1     0     1     1  4.50e+07   4.50e+07   1.000e+07 
   1     7   1     0     1     1  5.50e+07   5.50e+07   1.000e+07 
   1     8   1     0     1     1  6.50e+07   6.50e+07   1.000e+07 
   1     9   1     0     1     1  7.50e+07   7.50e+07   1.000e+07 
   1    10   1     0     1     1  8.50e+07   8.50e+07   1.000e+07 
   1    11   1     0     1     1  9.50e+07   9.50e+07   1.000e+07 
   1    12   1     0     1     1  1.05e+08   1.05e+08   1.000e+07 
   1    13   1     0     1     1  1.15e+08   1.15e+08   1.000e+07 
   1    14   1     0     1     1  1.25e+08   1.25e+08   1.000e+07 
   1    15   1     0     1     1  1.35e+08   1.35e+08   1.000e+07 
   1    16   1     0     1     1  1.45e+08   1.45e+08   1.000e+07 
   1    17   1     0     1     1  1.55e+08   1.55e+08   1.000e+07 
   1    18   1     0     1     1  1.65e+08   1.65e+08   1.000e+07 
   1    19   1     0     1     1  1.75e+08   1.75e+08   1.000e+07 
   1    20   1     0     1     1  1.85e+08   1.85e+08   1.000e+07 
   1    21   1     0     1     1  1.95e+08   1.95e+08   1.000e+07 
   1    22   1     0     1     1  2.05e+08   2.05e+08   1.000e+07 
   1    23   1     0     1     1  2.15e+08   2.15e+08   1.000e+07 
   1    24   1     0     1     1  2.25e+08   2.25e+08   1.000e+07 
   1    25   1     0     1     1  2.35e+08   2.35e+08   1.000e+07 
   1    26   1     0     1     1  2.45e+08   2.45e+08   1.000e+07 
   1    27   1     0     1     1  2.55e+08   2.55e+08   1.000e+07 
   1    28   1     0     1     1  2.65e+08   2.65e+08   1.000e+07 
   1    29   1     0     1     1  2.75e+08   2.75e+08   1.000e+07 
   1    30   1     0     1     1  2.85e+08   2.85e+08   1.000e+07 
   1    31   1     0     1     1  2.95e+08   2.95e+08   1.000e+07 
   1    32   1     0     1     1  3.05e+08   3.05e+08   1.000e+07 
   1    33   1     0     1     1  3.15e+08   3.15e+08   1.000e+07 
   1    34   1     0     1     1  3.25e+08   3.25e+08   1.000e+07 
   1    35   1     0     1     1  3.35e+08   3.35e+08   1.000e+07 
   1    36   1     0     1     1  3.45e+08   3.45e+08   1.000e+07 
   1    37   1     0     1     1  3.55e+08   3.55e+08   1.000e+07 
   1    38   1     0     1     1  3.65e+08   3.65e+08   1.000e+07 
   1    39   1     0     1     1  3.75e+08   3.75e+08   1.000e+07 
   1    40   1     0     1     1  3.85e+08   3.85e+08   1.000e+07 
   1    41   1     0     1     1  3.95e+08   3.95e+08   1.000e+07 
   1    42   1     0     1     1  4.05e+08   4.05e+08   1.000e+07 
   1    43   1     0     1     1  4.15e+08   4.15e+08   1.000e+07 
   1    44   1     0     1     1  4.25e+08   4.25e+08   1.000e+07 
   1    45   1     0     1     1  4.35e+08   4.35e+08   1.000e+07 
   1    46   1     0     1     1  4.45e+08   4.45e+08   1.000e+07 
   1    47   1     0     1     1  4.55e+08   4.55e+08   1.000e+07 
   1    48   1     0     1     1  4.65e+08   4.65e+08   1.000e+07 
   1    49   1     0     1     1  4.75e+08   4.75e+08   1.000e+07 
   1    50   1     0     1     1  4.85e+08   4.85e+08   1.000e+07 
   1    51   1     0     1     1  4.95e+08   4.95e+08   1.000e+07 
   1    52   1     0     1     1  5.05e+08   5.05e+08   1.000e+07 
   1    53   1     0     1     1  5.15e+08   5.15e+08   1.000e+07 
   1    54   1     0     1     1  5.25e+08   5.25e+08   1.000e+07 
   1    55   1     0     1     1  5.35e+08   5.35e+08   1.000e+07 
   1    56   1     0     1     1  5.45e+08   5.45e+08   1.000e+07 
   1    57   1     0     1     1  5.55e+08   5.55e+08   1.000e+07 
   1    58   1     0     1     1  5.65e+08   5.65e+08   1.000e+07 
   1    59   1     0     1     1  5.75e+08   5.75e+08   1.000e+07 
   1    60   1     0     1     1  5.85e+08   5.85e+08   1.000e+07 
   1    61   1     0     1     1  5.95e+08   5.95e+08   1.000e+07 
   1    62   1     0     1     1  6.05e+08   6.05e+08   1.000e+07 
   1    63   1     0     1     1  6.15e+08   6.15e+08   1.000e+07 
   1    64   1     0     1     1  6.25e+08   6.25e+08   1.000e+07 
   1    65   1     0     1     1  6.35e+08   6.35e+08   1.000e+07 
   1    66   1     0     1     1  6.45e+08   6.45e+08   1.000e+07 
   1    67   1     0     1     1  6.55e+08   6.55e+08   1.000e+07 
   1    68   1     0     1     1  6.65e+08   6.65e+08   1.000e+07 
   1    69   1     0     1     1  6.75e+08   6.75e+08   1.000e+07 
   1    70   1     0     1     1  6.85e+08   6.85e+08   1.000e+07 
   1    71   1     0     1     1  6.95e+08   6.95e+08   1.000e+07 
   1    72   1     0     1     1  7.05e+08   7.05e+08   1.000e+07 
   1    73   1     0     1     1  7.15e+08   7.15e+08   1.000e+07 
   1    74   1     0     1     1  7.25e+08   7.25e+08   1.000e+07 
   1    75   1     0     1     1  7.35e+08   7.35e+08   1.000e+07 
   1    76   1     0     1     1  7.45e+08   7.45e+08   1.000e+07 
   1    77   1     0     1     1  7.55e+08   7.55e+08   1.000e+07 
   1    78   1     0     1     1  7.65e+08   7.65e+08   1.000e+07 
   1    79   1     0     1     1  7.75e+08   7.75e+08   1.000e+07 
   1    80   1     0     1     1  7.85e+08   7.85e+08   1.000e+07 
   1    81   1     0     1     1  7.95e+08   7.95e+08   1.000e+07 
   1    82   1     0     1     1  8.05e+08   8.05e+08   1.000e+07 
   1    83   1     0     1     1  8.15e+08   8.15e+08   1.000e+07 
   1    84   1     0     1     1  8.25e+08   8.25e+08   1.000e+07 
   1    85   1     0     1     1  8.35e+08   8.35e+08   1.000e+07 
   1    86   1     0     1     1  8.45e+08   8.45e+08   1.000e+07 
   1    87   1     0     1     1  8.55e+08   8.55e+08   1.000e+07 
   1    88   1     0     1     1  8.65e+08   8.65e+08   1.000e+07 
   1    89   1     0     1     1  8.75e+08   8.75e+08   1.000e+07 
   1    90   1     0     1     1  8.85e+08   8.85e+08   1.000e+07 
   1    91   1     0     1     1  8.95e+08   8.95e+08   1.000e+07 
   1    92   1     0     1     1  9.05e+08   9.05e+08   1.000e+07 
   1    93   1     0     1     1  9.15e+08   9.15e+08   1.000e+07 
   1    94   1     0     1     1  9.25e+08   9.25e+08   1.000e+07 
   1    95   1     0     1     1  9.35e+08   9.35e+08   1.000e+07 
   1    96   1     0     1     1  9.45e+08   9.45e+08   1.000e+07 
   1    97   1     0     1     1  9.55e+08   9.55e+08   1.000e+07 
   1    98   1     0     1     1  9.65e+08   9.65e+08   1.000e+07 
   1    99   1     0     1     1  9.75e+08   9.75e+08   1.000e+07 
   1   100   1     0     1     1  9.85e+08   9.85e+08   1.000e+07 
